version 3
run General-3-20260511-19:58:08-532308
attr configname General
attr datetime 20260511-19:58:08
attr datetimef 20260511-195808
attr experiment General
attr inifile coldchain.ini
attr iterationvars ""
attr iterationvarsd ""
attr iterationvarsf ""
attr measurement ""
attr network ColdChainNetwork
attr processid 532308
attr repetition 3
attr replication #3
attr resultdir results
attr runnumber 3
attr seedset 3
config image-path ../../inet4.4/images
config num-rngs 2
config network ColdChainNetwork
config sim-time-limit 1h
config repeat 10
config seed-set 3
config ned-path ..:../ned:../../inet4.4/src:../../flora/src
config **.mobility.typename StationaryMobility
config **.initFromDisplayString false
config **.antenna.mobility.initialX 0m
config **.antenna.mobility.initialY 0m
config **.antenna.mobility.initialZ 0m
config *.gateway.mobility.initialX 250m
config *.gateway.mobility.initialY 250m
config *.gateway.mobility.initialZ 0m
config *.server.mobility.initialX 400m
config *.server.mobility.initialY 250m
config *.server.mobility.initialZ 0m
config *.sensor[*].mobility.initialX "uniform(100m, 200m)"
config *.sensor[*].mobility.initialY "uniform(100m, 300m)"
config *.sensor[*].mobility.initialZ 0m
config *.gateway.packetForwarder.queueMaxPackets 10
config **.gateway.packetForwarder.queueLength.result-recording-modes +vector
config *.radioMedium.analogModel.ignoreInterference false
config *.radioMedium.backgroundNoise.power -110dBm
config *.radioMedium.typename LoRaMedium
config **.maxTransmissionDuration 1000s
config **.energyStorage.typename IdealEpEnergyStorage
config **.energyConsumer.typename LoRaEnergyConsumer
config **.energyConsumer.configFile "xmldoc(\"energyConfig.xml\")"
config *.gateway.LoRaGWNic.radio.energyConsumer.energySourceModule "\"ColdChainNetwork.gateway.energyStorage\""
config *.gateway.LoRaGWNic.energySourceModule "\"ColdChainNetwork.gateway.energyStorage\""
config *.sensor[*].LoRaNic.radio.energyConsumer.energySourceModule "\"ColdChainNetwork.sensor[index].energyStorage\""
config *.sensor[*].LoRaNic.energySourceModule "\"ColdChainNetwork.sensor[index].energyStorage\""
config **.energyStorage.nominalCapacity 1000J
config **.energyStorage.initialCapacity 1000J
config *.sensor[*].numApps 1
config *.sensor[*].app[0].typename ColdChainApp
config *.sensor[*].app[0].destAddresses "\"gateway\""
config *.sensor[*].app[0].destPort 4000
config *.sensor[*].app[0].timeToNextPacket 20s
config *.sensor[*].app[0].tempMean 0
config *.sensor[*].app[0].tempStdDev 3
config *.sensor[*].app[0].tempThreshold 8
config **.sensor[*].app[0].humMean 40
config **.sensor[*].app[0].humStdDev 3
config **.sensor[*].app[0].humThreshold 55
config **.sensor[*].app[0].failureRate 0.05
config **.transmitter.spreadingFactor 12
config **.transmitter.power 14dBm
config *.gateway.numApps 1
config *.gateway.app[0].typename PacketForwarder
config *.gateway.packetForwarder.localPort 4000
config *.gateway.packetForwarder.destPort 5000
config *.gateway.packetForwarder.destAddresses "\"server\""
config *.server.numApps 1
config *.server.app[0].typename NetworkServerApp
config *.server.app[0].localPort 5000
config output-vector-file results/General-3.vec
config output-scalar-file results/General-3.sca
config cmdenv-express-mode false
config cmdenv-log-prefix "[%l] %m: "
config **.temperature.result-recording-modes +vector,+mean
config **.packetDelivery.result-recording-modes +count

par ColdChainNetwork.gateway.ethg$o[0].channel typename "\"inet.node.ethernet.Eth10M\""
par ColdChainNetwork.gateway.ethg$o[0].channel disabled false
attr mutable ""
par ColdChainNetwork.gateway.ethg$o[0].channel delay 5e-08s
attr mutable ""
attr unit s
par ColdChainNetwork.gateway.ethg$o[0].channel datarate 1e+07bps
attr mutable ""
attr unit bps
par ColdChainNetwork.gateway.ethg$o[0].channel ber 0
attr mutable ""
par ColdChainNetwork.gateway.ethg$o[0].channel per 0
attr mutable ""
par ColdChainNetwork.gateway.ethg$o[0].channel length 10m
attr unit m
par ColdChainNetwork.server.ethg$o[0].channel typename "\"inet.node.ethernet.Eth10M\""
par ColdChainNetwork.server.ethg$o[0].channel disabled false
attr mutable ""
par ColdChainNetwork.server.ethg$o[0].channel delay 5e-08s
attr mutable ""
attr unit s
par ColdChainNetwork.server.ethg$o[0].channel datarate 1e+07bps
attr mutable ""
attr unit bps
par ColdChainNetwork.server.ethg$o[0].channel ber 0
attr mutable ""
par ColdChainNetwork.server.ethg$o[0].channel per 0
attr mutable ""
par ColdChainNetwork.server.ethg$o[0].channel length 10m
attr unit m
par ColdChainNetwork.configurator typename "\"inet.networklayer.configurator.ipv4.Ipv4NetworkConfigurator\""
par ColdChainNetwork.configurator minLinkWeight 0.001
par ColdChainNetwork.configurator configureIsolatedNetworksSeparatly false
par ColdChainNetwork.configurator config "<config>...</config> at content:1"
par ColdChainNetwork.configurator assignAddresses true
par ColdChainNetwork.configurator assignUniqueAddresses true
par ColdChainNetwork.configurator assignDisjunctSubnetAddresses true
par ColdChainNetwork.configurator addStaticRoutes true
par ColdChainNetwork.configurator addDefaultRoutes true
par ColdChainNetwork.configurator addSubnetRoutes true
par ColdChainNetwork.configurator addDirectRoutes true
par ColdChainNetwork.configurator optimizeRoutes true
par ColdChainNetwork.configurator dumpTopology false
par ColdChainNetwork.configurator dumpLinks false
par ColdChainNetwork.configurator dumpAddresses false
par ColdChainNetwork.configurator dumpRoutes false
par ColdChainNetwork.configurator dumpConfig "\"\""
par ColdChainNetwork.radioMedium.propagation typename "\"inet.physicallayer.wireless.common.propagation.ConstantSpeedPropagation\""
par ColdChainNetwork.radioMedium.propagation propagationSpeed 2.99792e+08mps
attr unit mps
par ColdChainNetwork.radioMedium.propagation ignoreMovementDuringTransmission true
par ColdChainNetwork.radioMedium.propagation ignoreMovementDuringPropagation true
par ColdChainNetwork.radioMedium.propagation ignoreMovementDuringReception true
scalar ColdChainNetwork.radioMedium.propagation "Arrival computation count" 1923
par ColdChainNetwork.radioMedium.analogModel typename "\"flora.LoRaPhy.LoRaAnalogModel\""
par ColdChainNetwork.radioMedium.analogModel ignorePartialInterference false
par ColdChainNetwork.radioMedium.backgroundNoise typename "\"inet.physicallayer.wireless.common.backgroundnoise.DimensionalBackgroundNoise\""
par ColdChainNetwork.radioMedium.backgroundNoise gainFunctionCacheLimit 0
par ColdChainNetwork.radioMedium.backgroundNoise timeGains "\"left 0s 0dB left\""
par ColdChainNetwork.radioMedium.backgroundNoise timeGainsNormalization "\"\""
attr enum ,maximum,integral
par ColdChainNetwork.radioMedium.backgroundNoise frequencyGains "\"left 0Hz 0dB left\""
par ColdChainNetwork.radioMedium.backgroundNoise frequencyGainsNormalization "\"integral\""
attr enum ,maximum,integral
par ColdChainNetwork.radioMedium.backgroundNoise power -110dBm
attr unit dBm
par ColdChainNetwork.radioMedium.pathLoss typename "\"flora.LoRaPhy.LoRaLogNormalShadowing\""
par ColdChainNetwork.radioMedium.pathLoss alpha 2
par ColdChainNetwork.radioMedium.pathLoss systemLoss 0dB
attr unit dB
par ColdChainNetwork.radioMedium.pathLoss d0 40m
attr unit m
par ColdChainNetwork.radioMedium.pathLoss gamma 2.08
par ColdChainNetwork.radioMedium.pathLoss sigma 3.57
par ColdChainNetwork.radioMedium.mediumLimitCache typename "\"inet.physicallayer.wireless.common.medium.MediumLimitCache\""
par ColdChainNetwork.radioMedium.mediumLimitCache centerFrequency "nan Hz"
attr unit Hz
par ColdChainNetwork.radioMedium.mediumLimitCache maxSpeed "nan mps"
attr unit mps
par ColdChainNetwork.radioMedium.mediumLimitCache maxTransmissionPower "nan W"
attr unit W
par ColdChainNetwork.radioMedium.mediumLimitCache minInterferencePower "nan dBm"
attr unit dBm
par ColdChainNetwork.radioMedium.mediumLimitCache minReceptionPower "nan dBm"
attr unit dBm
par ColdChainNetwork.radioMedium.mediumLimitCache maxAntennaGain 0dB
attr unit dB
par ColdChainNetwork.radioMedium.mediumLimitCache minInterferenceTime 1e-12s
attr unit s
par ColdChainNetwork.radioMedium.mediumLimitCache maxTransmissionDuration 1000s
attr unit s
par ColdChainNetwork.radioMedium.mediumLimitCache maxCommunicationRange "nan m"
attr unit m
par ColdChainNetwork.radioMedium.mediumLimitCache maxInterferenceRange "nan m"
attr unit m
par ColdChainNetwork.radioMedium.communicationCache typename "\"inet.physicallayer.wireless.common.communicationcache.VectorCommunicationCache\""
par ColdChainNetwork.radioMedium typename "\"flora.LoRaPhy.LoRaMedium\""
par ColdChainNetwork.radioMedium physicalEnvironmentModule "\"physicalEnvironment\""
par ColdChainNetwork.radioMedium signalAnalogRepresentation "\"scalar\""
attr enum unitDisk,scalar,dimensional
par ColdChainNetwork.radioMedium rangeFilter "\"\""
par ColdChainNetwork.radioMedium radioModeFilter false
par ColdChainNetwork.radioMedium listeningFilter false
par ColdChainNetwork.radioMedium macAddressFilter false
par ColdChainNetwork.radioMedium recordTransmissionLog false
par ColdChainNetwork.radioMedium recordReceptionLog false
scalar ColdChainNetwork.radioMedium "transmission count" 641
scalar ColdChainNetwork.radioMedium "signal send count" 1923
scalar ColdChainNetwork.radioMedium "reception computation count" 1923
scalar ColdChainNetwork.radioMedium "interference computation count" 3177
scalar ColdChainNetwork.radioMedium "reception decision computation count" 689
scalar ColdChainNetwork.radioMedium "listening decision computation count" 1689
scalar ColdChainNetwork.radioMedium "reception cache hit" 70.9779655901
attr unit %
scalar ColdChainNetwork.radioMedium "interference cache hit" 65.131578947368
attr unit %
scalar ColdChainNetwork.radioMedium "noise cache hit" 0
attr unit %
scalar ColdChainNetwork.radioMedium "snir cache hit" 46.464646464646
attr unit %
scalar ColdChainNetwork.radioMedium "reception decision cache hit" 46.464646464646
attr unit %
scalar ColdChainNetwork.radioMedium "reception result cache hit" 0
attr unit %
par ColdChainNetwork.gateway.ethg$i[0].channel typename "\"ned.IdealChannel\""
par ColdChainNetwork.gateway.eth[0].phys$o.channel typename "\"ned.IdealChannel\""
par ColdChainNetwork.gateway.at typename "\"inet.common.MessageDispatcher\""
par ColdChainNetwork.gateway.at displayStringTextFormat "\"processed %p pk (%l)\""
par ColdChainNetwork.gateway.at forwardServiceRegistration true
par ColdChainNetwork.gateway.at forwardProtocolRegistration true
par ColdChainNetwork.gateway.tn typename "\"inet.common.MessageDispatcher\""
par ColdChainNetwork.gateway.tn displayStringTextFormat "\"processed %p pk (%l)\""
par ColdChainNetwork.gateway.tn forwardServiceRegistration true
par ColdChainNetwork.gateway.tn forwardProtocolRegistration true
par ColdChainNetwork.gateway.nl typename "\"inet.common.MessageDispatcher\""
par ColdChainNetwork.gateway.nl displayStringTextFormat "\"processed %p pk (%l)\""
par ColdChainNetwork.gateway.nl forwardServiceRegistration true
par ColdChainNetwork.gateway.nl forwardProtocolRegistration true
par ColdChainNetwork.gateway.cb typename "\"inet.common.MessageDispatcher\""
par ColdChainNetwork.gateway.cb displayStringTextFormat "\"processed %p pk (%l)\""
par ColdChainNetwork.gateway.cb forwardServiceRegistration true
par ColdChainNetwork.gateway.cb forwardProtocolRegistration true
par ColdChainNetwork.gateway.bl typename "\"inet.common.MessageDispatcher\""
par ColdChainNetwork.gateway.bl displayStringTextFormat "\"processed %p pk (%l)\""
par ColdChainNetwork.gateway.bl forwardServiceRegistration true
par ColdChainNetwork.gateway.bl forwardProtocolRegistration true
par ColdChainNetwork.gateway.li typename "\"inet.common.MessageDispatcher\""
par ColdChainNetwork.gateway.li displayStringTextFormat "\"processed %p pk (%l)\""
par ColdChainNetwork.gateway.li forwardServiceRegistration true
par ColdChainNetwork.gateway.li forwardProtocolRegistration true
par ColdChainNetwork.gateway.interfaceTable typename "\"inet.networklayer.common.InterfaceTable\""
par ColdChainNetwork.gateway.interfaceTable displayAddresses false
par ColdChainNetwork.gateway.mobility typename "\"inet.mobility.static.StationaryMobility\""
par ColdChainNetwork.gateway.mobility subjectModule "\"^\""
par ColdChainNetwork.gateway.mobility coordinateSystemModule "\"\""
par ColdChainNetwork.gateway.mobility displayStringTextFormat "\"p: %p\\nv: %v\""
attr mutable ""
par ColdChainNetwork.gateway.mobility updateDisplayString true
par ColdChainNetwork.gateway.mobility constraintAreaMinX "-inf m"
attr unit m
par ColdChainNetwork.gateway.mobility constraintAreaMinY "-inf m"
attr unit m
par ColdChainNetwork.gateway.mobility constraintAreaMinZ "-inf m"
attr unit m
par ColdChainNetwork.gateway.mobility constraintAreaMaxX "inf m"
attr unit m
par ColdChainNetwork.gateway.mobility constraintAreaMaxY "inf m"
attr unit m
par ColdChainNetwork.gateway.mobility constraintAreaMaxZ "inf m"
attr unit m
par ColdChainNetwork.gateway.mobility initialX 250m
attr unit m
par ColdChainNetwork.gateway.mobility initialY 250m
attr unit m
par ColdChainNetwork.gateway.mobility initialZ 0m
attr unit m
par ColdChainNetwork.gateway.mobility initialLatitude "nan deg"
attr unit deg
par ColdChainNetwork.gateway.mobility initialLongitude "nan deg"
attr unit deg
par ColdChainNetwork.gateway.mobility initialAltitude 0m
attr unit m
par ColdChainNetwork.gateway.mobility initialHeading 0deg
attr unit deg
par ColdChainNetwork.gateway.mobility initialElevation 0deg
attr unit deg
par ColdChainNetwork.gateway.mobility initialBank 0deg
attr unit deg
par ColdChainNetwork.gateway.mobility initFromDisplayString false
par ColdChainNetwork.gateway.mobility updateFromDisplayString true
par ColdChainNetwork.gateway.LoRaGWNic.radioIn.channel typename "\"ned.IdealChannel\""
par ColdChainNetwork.gateway.LoRaGWNic.mac.upperLayerOut.channel typename "\"ned.IdealChannel\""
par ColdChainNetwork.gateway.LoRaGWNic.upperLayerIn.channel typename "\"ned.IdealChannel\""
par ColdChainNetwork.gateway.LoRaGWNic.mac typename "\"flora.LoRa.LoRaGWMac\""
par ColdChainNetwork.gateway.LoRaGWNic.mac interfaceTableModule "\"ColdChainNetwork.gateway.interfaceTable\""
par ColdChainNetwork.gateway.LoRaGWNic.mac radioModule "\"^.radio\""
par ColdChainNetwork.gateway.LoRaGWNic.mac address "\"0A-AA-00-00-00-01\""
attr mutable ""
par ColdChainNetwork.gateway.LoRaGWNic.mac queueModule "\"\""
par ColdChainNetwork.gateway.LoRaGWNic.mac maxQueueSize -1
par ColdChainNetwork.gateway.LoRaGWNic.mac prioritizeByUP false
par ColdChainNetwork.gateway.LoRaGWNic.mac useAck true
par ColdChainNetwork.gateway.LoRaGWNic.mac headerLength 8B
attr unit B
par ColdChainNetwork.gateway.LoRaGWNic.mac ackLength 8B
attr unit B
par ColdChainNetwork.gateway.LoRaGWNic.mac sifsTime 1e-05s
attr unit s
par ColdChainNetwork.gateway.LoRaGWNic.mac slotTime 2e-05s
attr unit s
par ColdChainNetwork.gateway.LoRaGWNic.mac difsTime 5e-05s
attr unit s
par ColdChainNetwork.gateway.LoRaGWNic.mac mtu 1500
par ColdChainNetwork.gateway.LoRaGWNic.mac cwMin 31
par ColdChainNetwork.gateway.LoRaGWNic.mac cwMax 1023
par ColdChainNetwork.gateway.LoRaGWNic.mac cwMulticast 31
par ColdChainNetwork.gateway.LoRaGWNic.mac retryLimit 7
scalar ColdChainNetwork.gateway.LoRaGWNic.mac GW_forwardedDown 0
scalar ColdChainNetwork.gateway.LoRaGWNic.mac GW_droppedDC 0
par ColdChainNetwork.gateway.LoRaGWNic.radio.antenna.mobility typename "\"inet.mobility.static.StationaryMobility\""
par ColdChainNetwork.gateway.LoRaGWNic.radio.antenna.mobility subjectModule "\"\""
par ColdChainNetwork.gateway.LoRaGWNic.radio.antenna.mobility coordinateSystemModule "\"\""
par ColdChainNetwork.gateway.LoRaGWNic.radio.antenna.mobility displayStringTextFormat "\"p: %p\\nv: %v\""
attr mutable ""
par ColdChainNetwork.gateway.LoRaGWNic.radio.antenna.mobility updateDisplayString true
par ColdChainNetwork.gateway.LoRaGWNic.radio.antenna.mobility constraintAreaMinX "-inf m"
attr unit m
par ColdChainNetwork.gateway.LoRaGWNic.radio.antenna.mobility constraintAreaMinY "-inf m"
attr unit m
par ColdChainNetwork.gateway.LoRaGWNic.radio.antenna.mobility constraintAreaMinZ "-inf m"
attr unit m
par ColdChainNetwork.gateway.LoRaGWNic.radio.antenna.mobility constraintAreaMaxX "inf m"
attr unit m
par ColdChainNetwork.gateway.LoRaGWNic.radio.antenna.mobility constraintAreaMaxY "inf m"
attr unit m
par ColdChainNetwork.gateway.LoRaGWNic.radio.antenna.mobility constraintAreaMaxZ "inf m"
attr unit m
par ColdChainNetwork.gateway.LoRaGWNic.radio.antenna.mobility initialX 0m
attr unit m
par ColdChainNetwork.gateway.LoRaGWNic.radio.antenna.mobility initialY 0m
attr unit m
par ColdChainNetwork.gateway.LoRaGWNic.radio.antenna.mobility initialZ 0m
attr unit m
par ColdChainNetwork.gateway.LoRaGWNic.radio.antenna.mobility initialLatitude "nan deg"
attr unit deg
par ColdChainNetwork.gateway.LoRaGWNic.radio.antenna.mobility initialLongitude "nan deg"
attr unit deg
par ColdChainNetwork.gateway.LoRaGWNic.radio.antenna.mobility initialAltitude 0m
attr unit m
par ColdChainNetwork.gateway.LoRaGWNic.radio.antenna.mobility initialHeading 0deg
attr unit deg
par ColdChainNetwork.gateway.LoRaGWNic.radio.antenna.mobility initialElevation 0deg
attr unit deg
par ColdChainNetwork.gateway.LoRaGWNic.radio.antenna.mobility initialBank 0deg
attr unit deg
par ColdChainNetwork.gateway.LoRaGWNic.radio.antenna.mobility initFromDisplayString false
par ColdChainNetwork.gateway.LoRaGWNic.radio.antenna.mobility updateFromDisplayString true
par ColdChainNetwork.gateway.LoRaGWNic.radio.antenna typename "\"inet.physicallayer.wireless.common.antenna.IsotropicAntenna\""
par ColdChainNetwork.gateway.LoRaGWNic.radio.antenna mobilityModule "\"^.^.^.mobility\""
par ColdChainNetwork.gateway.LoRaGWNic.radio.antenna numAntennas 1
par ColdChainNetwork.gateway.LoRaGWNic.radio.transmitter typename "\"flora.LoRaPhy.LoRaTransmitter\""
par ColdChainNetwork.gateway.LoRaGWNic.radio.transmitter preambleDuration 0.001s
attr unit s
par ColdChainNetwork.gateway.LoRaGWNic.radio.transmitter headerLength 0b
attr unit b
par ColdChainNetwork.gateway.LoRaGWNic.radio.transmitter bitrate 250000bps
attr unit bps
par ColdChainNetwork.gateway.LoRaGWNic.radio.transmitter power 0.0251189W
attr unit W
par ColdChainNetwork.gateway.LoRaGWNic.radio.transmitter centerFrequency 2.45e+09Hz
attr unit Hz
par ColdChainNetwork.gateway.LoRaGWNic.radio.transmitter bandwidth 250000Hz
attr unit Hz
par ColdChainNetwork.gateway.LoRaGWNic.radio.transmitter modulation "\"LoRaModulation\""
scalar ColdChainNetwork.gateway.LoRaGWNic.radio.transmitter LoRaTransmissionCreated:count 0
attr recordingmode count
attr source LoRaTransmissionCreated
par ColdChainNetwork.gateway.LoRaGWNic.radio.receiver typename "\"flora.LoRaPhy.LoRaReceiver\""
par ColdChainNetwork.gateway.LoRaGWNic.radio.receiver snirThreshold -8dB
attr unit dB
par ColdChainNetwork.gateway.LoRaGWNic.radio.receiver snirThresholdMode "\"min\""
attr unit min,mean
par ColdChainNetwork.gateway.LoRaGWNic.radio.receiver energyDetection -90dBm
attr unit dBm
par ColdChainNetwork.gateway.LoRaGWNic.radio.receiver sensitivity -100dBm
attr unit dBm
par ColdChainNetwork.gateway.LoRaGWNic.radio.receiver centerFrequency 2.45e+09Hz
attr unit Hz
par ColdChainNetwork.gateway.LoRaGWNic.radio.receiver bandwidth 250000Hz
attr unit Hz
par ColdChainNetwork.gateway.LoRaGWNic.radio.receiver modulation "\"BPSK\""
par ColdChainNetwork.gateway.LoRaGWNic.radio.receiver alohaChannelModel false
scalar ColdChainNetwork.gateway.LoRaGWNic.radio.receiver numCollisions 183
scalar ColdChainNetwork.gateway.LoRaGWNic.radio.receiver rcvBelowSensitivity 0
scalar ColdChainNetwork.gateway.LoRaGWNic.radio.receiver LoRaReceptionCollision:count 183
attr recordingmode count
attr source LoRaReceptionCollision
par ColdChainNetwork.gateway.LoRaGWNic.radio.energyConsumer typename "\"flora.LoRaEnergyModules.LoRaEnergyConsumer\""
par ColdChainNetwork.gateway.LoRaGWNic.radio.energyConsumer energySourceModule "\"ColdChainNetwork.gateway.energyStorage\""
par ColdChainNetwork.gateway.LoRaGWNic.radio.energyConsumer offPowerConsumption 0W
attr unit W
par ColdChainNetwork.gateway.LoRaGWNic.radio.energyConsumer sleepPowerConsumption 0.001W
attr unit W
par ColdChainNetwork.gateway.LoRaGWNic.radio.energyConsumer switchingPowerConsumption 0.001W
attr unit W
par ColdChainNetwork.gateway.LoRaGWNic.radio.energyConsumer receiverIdlePowerConsumption 0.002W
attr unit W
par ColdChainNetwork.gateway.LoRaGWNic.radio.energyConsumer receiverBusyPowerConsumption 0.005W
attr unit W
par ColdChainNetwork.gateway.LoRaGWNic.radio.energyConsumer receiverReceivingPowerConsumption 0.01W
attr unit W
par ColdChainNetwork.gateway.LoRaGWNic.radio.energyConsumer receiverReceivingPreamblePowerConsumption 0.01W
attr unit W
par ColdChainNetwork.gateway.LoRaGWNic.radio.energyConsumer receiverReceivingHeaderPowerConsumption 0.01W
attr unit W
par ColdChainNetwork.gateway.LoRaGWNic.radio.energyConsumer receiverReceivingDataPowerConsumption 0.01W
attr unit W
par ColdChainNetwork.gateway.LoRaGWNic.radio.energyConsumer transmitterIdlePowerConsumption 0.002W
attr unit W
par ColdChainNetwork.gateway.LoRaGWNic.radio.energyConsumer transmitterTransmittingPowerConsumption 0.1W
attr unit W
par ColdChainNetwork.gateway.LoRaGWNic.radio.energyConsumer transmitterTransmittingPreamblePowerConsumption 0.1W
attr unit W
par ColdChainNetwork.gateway.LoRaGWNic.radio.energyConsumer transmitterTransmittingHeaderPowerConsumption 0.1W
attr unit W
par ColdChainNetwork.gateway.LoRaGWNic.radio.energyConsumer transmitterTransmittingDataPowerConsumption 0.1W
attr unit W
par ColdChainNetwork.gateway.LoRaGWNic.radio.energyConsumer configFile "<energyConsumption>...</energyConsumption> at /home/a/Downloads/omnetpp-6.0-linux-aarch64/omnetpp-6.0/ColdChain/ini//energyConfig.xml:3"
scalar ColdChainNetwork.gateway.LoRaGWNic.radio.energyConsumer totalEnergyConsumed 0
par ColdChainNetwork.gateway.LoRaGWNic.radio typename "\"flora.LoRa.LoRaGWRadio\""
par ColdChainNetwork.gateway.LoRaGWNic.radio radioMediumModule "\"radioMedium\""
par ColdChainNetwork.gateway.LoRaGWNic.radio energySourceModule "\"ColdChainNetwork.gateway.energyStorage\""
par ColdChainNetwork.gateway.LoRaGWNic.radio initialRadioMode "\"off\""
attr enum off,sleep,receiver,transmitter,transceiver
par ColdChainNetwork.gateway.LoRaGWNic.radio switchingTimes "\"ms 0 0 0 0 0 0 0 0 0 0 0 0 0 0 0 0 0 0 0 0 0 0 0 0 0\""
par ColdChainNetwork.gateway.LoRaGWNic.radio sendRawBytes false
par ColdChainNetwork.gateway.LoRaGWNic.radio separateTransmissionParts false
par ColdChainNetwork.gateway.LoRaGWNic.radio separateReceptionParts false
par ColdChainNetwork.gateway.LoRaGWNic.radio displayCommunicationRange false
par ColdChainNetwork.gateway.LoRaGWNic.radio displayInterferenceRange false
par ColdChainNetwork.gateway.LoRaGWNic.radio centerFrequency 2.45e+09Hz
attr unit Hz
par ColdChainNetwork.gateway.LoRaGWNic.radio bandwidth 250000Hz
attr unit Hz
par ColdChainNetwork.gateway.LoRaGWNic.radio iAmGateway true
scalar ColdChainNetwork.gateway.LoRaGWNic.radio "DER - Data Extraction Rate" 0.71294851794072
scalar ColdChainNetwork.gateway.LoRaGWNic.radio LoRaGWRadioReceptionFinishedCorrect:count 457
attr recordingmode count
attr source LoRaGWRadioReceptionFinishedCorrect
scalar ColdChainNetwork.gateway.LoRaGWNic.radio LoRaGWRadioReceptionStarted:count 641
attr recordingmode count
attr source LoRaGWRadioReceptionStarted
scalar ColdChainNetwork.gateway.LoRaGWNic.radio radioMode:count 3
attr interpolationmode sample-hold
attr recordingmode count
attr source radioModeChanged
attr title "Radio mode, count"
scalar ColdChainNetwork.gateway.LoRaGWNic.radio receptionState:count 1
attr interpolationmode sample-hold
attr recordingmode count
attr source receptionStateChanged
attr title "Radio reception state, count"
scalar ColdChainNetwork.gateway.LoRaGWNic.radio transmissionState:count 1
attr interpolationmode sample-hold
attr recordingmode count
attr source transmissionStateChanged
attr title "Radio transmission state, count"
statistic ColdChainNetwork.gateway.LoRaGWNic.radio minSnir:histogram
field count 914
field mean 49570378468168
field stddev 5216458162953.4
field min 0.99999999999998
field max 50118723362727
field sum 4.5307325919906e+16
field sqrsum 2.2707453340846e+30
attr recordingmode histogram
attr source minimumSnir(packetSentToUpper)
attr title "Min SNIR"
bin	-inf	0
bin	0	10
bin	1000000000000	0
bin	2000000000000	0
bin	3000000000000	0
bin	4000000000000	0
bin	5000000000000	0
bin	6000000000000	0
bin	7000000000000	0
bin	8000000000000	0
bin	9000000000000	0
bin	10000000000000	0
bin	11000000000000	0
bin	12000000000000	0
bin	13000000000000	0
bin	14000000000000	0
bin	15000000000000	0
bin	16000000000000	0
bin	17000000000000	0
bin	18000000000000	0
bin	19000000000000	0
bin	20000000000000	0
bin	21000000000000	0
bin	22000000000000	0
bin	23000000000000	0
bin	24000000000000	0
bin	25000000000000	0
bin	26000000000000	0
bin	27000000000000	0
bin	28000000000000	0
bin	29000000000000	0
bin	30000000000000	0
bin	31000000000000	0
bin	32000000000000	0
bin	33000000000000	0
bin	34000000000000	0
bin	35000000000000	0
bin	36000000000000	0
bin	37000000000000	0
bin	38000000000000	0
bin	39000000000000	0
bin	40000000000000	0
bin	41000000000000	0
bin	42000000000000	0
bin	43000000000000	0
bin	44000000000000	0
bin	45000000000000	0
bin	46000000000000	0
bin	47000000000000	0
bin	48000000000000	0
bin	49000000000000	0
bin	50000000000000	904
bin	51000000000000	0
bin	52000000000000	0
bin	53000000000000	0
bin	54000000000000	0
bin	55000000000000	0
bin	56000000000000	0
bin	57000000000000	0
bin	58000000000000	0
bin	59000000000000	0
bin	60000000000000	0
bin	61000000000000	0
bin	62000000000000	0
bin	63000000000000	0
statistic ColdChainNetwork.gateway.LoRaGWNic.radio packetErrorRate:histogram
field count 914
field mean 0
field stddev 0
field min 0
field max 0
field sum 0
field sqrsum 0
attr recordingmode histogram
attr source packetErrorRate(packetSentToUpper)
attr title "Packet error rate"
bin	-inf	0
bin	-0.5	0
bin	-0.48	0
bin	-0.46	0
bin	-0.44	0
bin	-0.42	0
bin	-0.4	0
bin	-0.38	0
bin	-0.36	0
bin	-0.34	0
bin	-0.32	0
bin	-0.3	0
bin	-0.28	0
bin	-0.26	0
bin	-0.24	0
bin	-0.22	0
bin	-0.2	0
bin	-0.18	0
bin	-0.16	0
bin	-0.14	0
bin	-0.12	0
bin	-0.1	0
bin	-0.08	0
bin	-0.06	0
bin	-0.04	0
bin	-0.02	0
bin	0	914
bin	0.02	0
bin	0.04	0
bin	0.06	0
bin	0.08	0
bin	0.1	0
bin	0.12	0
bin	0.14	0
bin	0.16	0
bin	0.18	0
bin	0.2	0
bin	0.22	0
bin	0.24	0
bin	0.26	0
bin	0.28	0
bin	0.3	0
bin	0.32	0
bin	0.34	0
bin	0.36	0
bin	0.38	0
bin	0.4	0
bin	0.42	0
bin	0.44	0
bin	0.46	0
bin	0.48	0
bin	0.5	0
statistic ColdChainNetwork.gateway.LoRaGWNic.radio bitErrorRate:histogram
field count 914
field mean 0
field stddev 0
field min 0
field max 0
field sum 0
field sqrsum 0
attr recordingmode histogram
attr source bitErrorRate(packetSentToUpper)
attr title "Bit error rate"
bin	-inf	0
bin	-0.5	0
bin	-0.48	0
bin	-0.46	0
bin	-0.44	0
bin	-0.42	0
bin	-0.4	0
bin	-0.38	0
bin	-0.36	0
bin	-0.34	0
bin	-0.32	0
bin	-0.3	0
bin	-0.28	0
bin	-0.26	0
bin	-0.24	0
bin	-0.22	0
bin	-0.2	0
bin	-0.18	0
bin	-0.16	0
bin	-0.14	0
bin	-0.12	0
bin	-0.1	0
bin	-0.08	0
bin	-0.06	0
bin	-0.04	0
bin	-0.02	0
bin	0	914
bin	0.02	0
bin	0.04	0
bin	0.06	0
bin	0.08	0
bin	0.1	0
bin	0.12	0
bin	0.14	0
bin	0.16	0
bin	0.18	0
bin	0.2	0
bin	0.22	0
bin	0.24	0
bin	0.26	0
bin	0.28	0
bin	0.3	0
bin	0.32	0
bin	0.34	0
bin	0.36	0
bin	0.38	0
bin	0.4	0
bin	0.42	0
bin	0.44	0
bin	0.46	0
bin	0.48	0
bin	0.5	0
statistic ColdChainNetwork.gateway.LoRaGWNic.radio symbolErrorRate:histogram
field count 914
field mean 0
field stddev 0
field min 0
field max 0
field sum 0
field sqrsum 0
attr recordingmode histogram
attr source symbolErrorRate(packetSentToUpper)
attr title "Symbol error rate"
bin	-inf	0
bin	-0.5	0
bin	-0.48	0
bin	-0.46	0
bin	-0.44	0
bin	-0.42	0
bin	-0.4	0
bin	-0.38	0
bin	-0.36	0
bin	-0.34	0
bin	-0.32	0
bin	-0.3	0
bin	-0.28	0
bin	-0.26	0
bin	-0.24	0
bin	-0.22	0
bin	-0.2	0
bin	-0.18	0
bin	-0.16	0
bin	-0.14	0
bin	-0.12	0
bin	-0.1	0
bin	-0.08	0
bin	-0.06	0
bin	-0.04	0
bin	-0.02	0
bin	0	914
bin	0.02	0
bin	0.04	0
bin	0.06	0
bin	0.08	0
bin	0.1	0
bin	0.12	0
bin	0.14	0
bin	0.16	0
bin	0.18	0
bin	0.2	0
bin	0.22	0
bin	0.24	0
bin	0.26	0
bin	0.28	0
bin	0.3	0
bin	0.32	0
bin	0.34	0
bin	0.36	0
bin	0.38	0
bin	0.4	0
bin	0.42	0
bin	0.44	0
bin	0.46	0
bin	0.48	0
bin	0.5	0
par ColdChainNetwork.gateway.LoRaGWNic typename "\"flora.LoRa.LoRaGWNic\""
par ColdChainNetwork.gateway.LoRaGWNic displayStringTextFormat "\"%a (%i)\\n%m\""
par ColdChainNetwork.gateway.LoRaGWNic recordPcap false
par ColdChainNetwork.gateway.LoRaGWNic numPcapRecorders 0
par ColdChainNetwork.gateway.LoRaGWNic interfaceTableModule "\"ColdChainNetwork.gateway.interfaceTable\""
par ColdChainNetwork.gateway.LoRaGWNic energySourceModule "\"ColdChainNetwork.gateway.energyStorage\""
par ColdChainNetwork.gateway.LoRaGWNic protocol "\"\""
scalar ColdChainNetwork.gateway.LoRaGWNic packetDropInterfaceDown:count 0
attr interpolationmode none
attr recordingmode count
attr source packetDropReasonIsInterfaceDown(packetDropped)
attr title "packet drops: interface down, count"
scalar ColdChainNetwork.gateway.LoRaGWNic packetDropInterfaceDown:sum(packetBytes) 0
attr interpolationmode none
attr recordingmode sum(packetBytes)
attr source packetDropReasonIsInterfaceDown(packetDropped)
attr title "packet drops: interface down, sum(packetBytes)"
scalar ColdChainNetwork.gateway.LoRaGWNic packetDropNoCarrier:count 0
attr interpolationmode none
attr recordingmode count
attr source packetDropReasonIsNoCarrier(packetDropped)
attr title "packet drops: no carrier, count"
scalar ColdChainNetwork.gateway.LoRaGWNic packetDropNoCarrier:sum(packetBytes) 0
attr interpolationmode none
attr recordingmode sum(packetBytes)
attr source packetDropReasonIsNoCarrier(packetDropped)
attr title "packet drops: no carrier, sum(packetBytes)"
par ColdChainNetwork.gateway.packetForwarder typename "\"flora.LoRa.PacketForwarder\""
par ColdChainNetwork.gateway.packetForwarder localPort 4000
par ColdChainNetwork.gateway.packetForwarder destAddresses "\"server\""
par ColdChainNetwork.gateway.packetForwarder localAddress "\"\""
par ColdChainNetwork.gateway.packetForwarder destPort 5000
scalar ColdChainNetwork.gateway.packetForwarder LoRa_GW_DER inf
scalar ColdChainNetwork.gateway.packetForwarder LoRa_GWPacketReceived:count 457
attr recordingmode count
attr source LoRa_GWPacketReceived
par ColdChainNetwork.gateway.eth[0].mac.phys$o.channel typename "\"ned.IdealChannel\""
par ColdChainNetwork.gateway.eth[0].phys$i.channel typename "\"ned.IdealChannel\""
par ColdChainNetwork.gateway.eth[0].upperLayerIn.channel typename "\"ned.IdealChannel\""
par ColdChainNetwork.gateway.eth[0].mac.upperLayerOut.channel typename "\"ned.IdealChannel\""
par ColdChainNetwork.gateway.eth[0].queue typename "\"inet.linklayer.ethernet.common.EthernetQueue\""
par ColdChainNetwork.gateway.eth[0].queue displayStringTextFormat "\"contains %p pk (%l) pushed %u\\npulled %o removed %r dropped %d\""
par ColdChainNetwork.gateway.eth[0].queue packetCapacity 1000
par ColdChainNetwork.gateway.eth[0].queue dataCapacity -1b
attr unit b
par ColdChainNetwork.gateway.eth[0].queue dropperClass "\"inet::queueing::PacketAtCollectionEndDropper\""
par ColdChainNetwork.gateway.eth[0].queue comparatorClass "\"inet::EthernetFrameTypeComparator\""
par ColdChainNetwork.gateway.eth[0].queue bufferModule "\"\""
scalar ColdChainNetwork.gateway.eth[0].queue queueLength:last 0
attr autoWarmupFilter false
attr interpolationmode sample-hold
attr recordingmode last
attr source "warmup(atomic(constant0(packetPushEnded) + count(packetPushStarted) - count(packetPulled) - count(packetRemoved) - count(packetDropped)))"
attr title "queue length, last"
attr unit pk
scalar ColdChainNetwork.gateway.eth[0].queue queueLength:max 0
attr autoWarmupFilter false
attr interpolationmode sample-hold
attr recordingmode max
attr source "warmup(atomic(constant0(packetPushEnded) + count(packetPushStarted) - count(packetPulled) - count(packetRemoved) - count(packetDropped)))"
attr title "queue length, max"
attr unit pk
scalar ColdChainNetwork.gateway.eth[0].queue queueLength:timeavg 0
attr autoWarmupFilter false
attr interpolationmode sample-hold
attr recordingmode timeavg
attr source "warmup(atomic(constant0(packetPushEnded) + count(packetPushStarted) - count(packetPulled) - count(packetRemoved) - count(packetDropped)))"
attr title "queue length, timeavg"
attr unit pk
scalar ColdChainNetwork.gateway.eth[0].queue queueBitLength:last 0
attr autoWarmupFilter false
attr interpolationmode sample-hold
attr recordingmode last
attr source "warmup(atomic(constant0(packetPushEnded) + sum(packetLength(packetPushStarted)) - sum(packetLength(packetPulled)) - sum(packetLength(packetRemoved)) - sum(packetLength(packetDropped))))"
attr title "queue bit length, last"
attr unit b
scalar ColdChainNetwork.gateway.eth[0].queue queueBitLength:max 0
attr autoWarmupFilter false
attr interpolationmode sample-hold
attr recordingmode max
attr source "warmup(atomic(constant0(packetPushEnded) + sum(packetLength(packetPushStarted)) - sum(packetLength(packetPulled)) - sum(packetLength(packetRemoved)) - sum(packetLength(packetDropped))))"
attr title "queue bit length, max"
attr unit b
scalar ColdChainNetwork.gateway.eth[0].queue queueBitLength:timeavg 0
attr autoWarmupFilter false
attr interpolationmode sample-hold
attr recordingmode timeavg
attr source "warmup(atomic(constant0(packetPushEnded) + sum(packetLength(packetPushStarted)) - sum(packetLength(packetPulled)) - sum(packetLength(packetRemoved)) - sum(packetLength(packetDropped))))"
attr title "queue bit length, timeavg"
attr unit b
statistic ColdChainNetwork.gateway.eth[0].queue queueingTime:histogram
field count 486
field mean 0
field stddev 0
field min 0
field max 0
field sum 0
field sqrsum 0
attr interpolationmode none
attr recordingmode histogram
attr source queueingTime(packetPulled)
attr title "queueing times"
attr unit s
bin	-inf	0
bin	-0.5	0
bin	-0.48	0
bin	-0.46	0
bin	-0.44	0
bin	-0.42	0
bin	-0.4	0
bin	-0.38	0
bin	-0.36	0
bin	-0.34	0
bin	-0.32	0
bin	-0.3	0
bin	-0.28	0
bin	-0.26	0
bin	-0.24	0
bin	-0.22	0
bin	-0.2	0
bin	-0.18	0
bin	-0.16	0
bin	-0.14	0
bin	-0.12	0
bin	-0.1	0
bin	-0.08	0
bin	-0.06	0
bin	-0.04	0
bin	-0.02	0
bin	0	486
bin	0.02	0
bin	0.04	0
bin	0.06	0
bin	0.08	0
bin	0.1	0
bin	0.12	0
bin	0.14	0
bin	0.16	0
bin	0.18	0
bin	0.2	0
bin	0.22	0
bin	0.24	0
bin	0.26	0
bin	0.28	0
bin	0.3	0
bin	0.32	0
bin	0.34	0
bin	0.36	0
bin	0.38	0
bin	0.4	0
bin	0.42	0
bin	0.44	0
bin	0.46	0
bin	0.48	0
bin	0.5	0
scalar ColdChainNetwork.gateway.eth[0].queue outgoingPackets:count 486
attr recordingmode count
attr source packetPulled
attr title "outgoing packets, count"
attr unit pk
scalar ColdChainNetwork.gateway.eth[0].queue outgoingPacketLengths:sum 270248
attr interpolationmode none
attr recordingmode sum
attr source packetLength(packetPulled)
attr title "outgoing packet lengths, sum"
attr unit b
statistic ColdChainNetwork.gateway.eth[0].queue outgoingPacketLengths:histogram
field count 486
field mean 556.0658436214
field stddev 47.423990036018
field min 368
field max 568
field sum 270248
field sqrsum 151366464
attr interpolationmode none
attr recordingmode histogram
attr source packetLength(packetPulled)
attr title "outgoing packet lengths"
attr unit b
bin	-inf	0
bin	315	0
bin	320	0
bin	325	0
bin	330	0
bin	335	0
bin	340	0
bin	345	0
bin	350	0
bin	355	0
bin	360	0
bin	365	29
bin	370	0
bin	375	0
bin	380	0
bin	385	0
bin	390	0
bin	395	0
bin	400	0
bin	405	0
bin	410	0
bin	415	0
bin	420	0
bin	425	0
bin	430	0
bin	435	0
bin	440	0
bin	445	0
bin	450	0
bin	455	0
bin	460	0
bin	465	0
bin	470	0
bin	475	0
bin	480	0
bin	485	0
bin	490	0
bin	495	0
bin	500	0
bin	505	0
bin	510	0
bin	515	0
bin	520	0
bin	525	0
bin	530	0
bin	535	0
bin	540	0
bin	545	0
bin	550	0
bin	555	0
bin	560	0
bin	565	457
bin	570	0
bin	575	0
bin	580	0
bin	585	0
bin	590	0
bin	595	0
bin	600	0
bin	605	0
bin	610	0
bin	615	0
bin	620	0
statistic ColdChainNetwork.gateway.eth[0].queue flowQueueingTime:histogram
field count 0
field mean nan
field stddev nan
field min nan
field max nan
field sum 0
field sqrsum 0
attr interpolationmode none
attr recordingmode histogram
attr source queueingTime(demuxFlow(packetPulled))
attr title "flow queueing times"
attr unit s
bin	-inf	0
bin	0	0
bin	1	0
scalar ColdChainNetwork.gateway.eth[0].queue incomingPackets:count 486
attr recordingmode count
attr source packetPushStarted
attr title "incoming packets, count"
attr unit pk
scalar ColdChainNetwork.gateway.eth[0].queue incomingPacketLengths:sum 270248
attr interpolationmode none
attr recordingmode sum
attr source packetLength(packetPushStarted)
attr title "incoming packet lengths, sum"
attr unit b
statistic ColdChainNetwork.gateway.eth[0].queue incomingPacketLengths:histogram
field count 486
field mean 556.0658436214
field stddev 47.423990036018
field min 368
field max 568
field sum 270248
field sqrsum 151366464
attr interpolationmode none
attr recordingmode histogram
attr source packetLength(packetPushStarted)
attr title "incoming packet lengths"
attr unit b
bin	-inf	0
bin	315	0
bin	320	0
bin	325	0
bin	330	0
bin	335	0
bin	340	0
bin	345	0
bin	350	0
bin	355	0
bin	360	0
bin	365	29
bin	370	0
bin	375	0
bin	380	0
bin	385	0
bin	390	0
bin	395	0
bin	400	0
bin	405	0
bin	410	0
bin	415	0
bin	420	0
bin	425	0
bin	430	0
bin	435	0
bin	440	0
bin	445	0
bin	450	0
bin	455	0
bin	460	0
bin	465	0
bin	470	0
bin	475	0
bin	480	0
bin	485	0
bin	490	0
bin	495	0
bin	500	0
bin	505	0
bin	510	0
bin	515	0
bin	520	0
bin	525	0
bin	530	0
bin	535	0
bin	540	0
bin	545	0
bin	550	0
bin	555	0
bin	560	0
bin	565	457
bin	570	0
bin	575	0
bin	580	0
bin	585	0
bin	590	0
bin	595	0
bin	600	0
bin	605	0
bin	610	0
bin	615	0
bin	620	0
scalar ColdChainNetwork.gateway.eth[0].queue droppedPacketsQueueOverflow:count 0
attr interpolationmode none
attr recordingmode count
attr source packetDropReasonIsQueueOverflow(packetDropped)
attr title "dropped packets: queue overflow, count"
attr unit pk
scalar ColdChainNetwork.gateway.eth[0].queue droppedPacketLengthsQueueOverflow:sum 0
attr interpolationmode none
attr recordingmode sum
attr source packetLength(packetDropReasonIsQueueOverflow(packetDropped))
attr title "dropped packet lengths: queue overflow, sum"
attr unit b
par ColdChainNetwork.gateway.eth[0].mac typename "\"inet.linklayer.ethernet.basic.EthernetMac\""
par ColdChainNetwork.gateway.eth[0].mac interfaceTableModule "\"ColdChainNetwork.gateway.interfaceTable\""
par ColdChainNetwork.gateway.eth[0].mac displayStringTextFormat "\"rate: %b\\nsent: %s, rcvd: %r\\nqueue: %q, drop: %d\""
par ColdChainNetwork.gateway.eth[0].mac sendRawBytes false
par ColdChainNetwork.gateway.eth[0].mac promiscuous false
par ColdChainNetwork.gateway.eth[0].mac duplexMode true
par ColdChainNetwork.gateway.eth[0].mac mtu 1500B
attr unit B
par ColdChainNetwork.gateway.eth[0].mac fcsMode "\"declared\""
attr enum declared,computed
par ColdChainNetwork.gateway.eth[0].mac stopOperationExtraTime -1s
attr unit s
par ColdChainNetwork.gateway.eth[0].mac stopOperationTimeout 2s
attr unit s
scalar ColdChainNetwork.gateway.eth[0].mac "simulated time" 3600
scalar ColdChainNetwork.gateway.eth[0].mac full-duplex 1
scalar ColdChainNetwork.gateway.eth[0].mac "frames/sec sent" 0.135
scalar ColdChainNetwork.gateway.eth[0].mac "frames/sec rcvd" 0.0080555555555556
scalar ColdChainNetwork.gateway.eth[0].mac "bits/sec sent" 76.228888888889
scalar ColdChainNetwork.gateway.eth[0].mac "bits/sec rcvd" 4.1244444444444
scalar ColdChainNetwork.gateway.eth[0].mac "rx channel idle (%)" 99.9999536
scalar ColdChainNetwork.gateway.eth[0].mac "rx channel utilization (%)" 4.64e-05
scalar ColdChainNetwork.gateway.eth[0].mac rxPausePkUnits:count 0
attr interpolationmode none
attr recordingmode count
attr title "pause units received, count"
scalar ColdChainNetwork.gateway.eth[0].mac rxPausePkUnits:sum 0
attr interpolationmode none
attr recordingmode sum
attr title "pause units received, sum"
scalar ColdChainNetwork.gateway.eth[0].mac txPausePkUnits:count 0
attr interpolationmode none
attr recordingmode count
attr title "pause units sent, count"
scalar ColdChainNetwork.gateway.eth[0].mac txPausePkUnits:sum 0
attr interpolationmode none
attr recordingmode sum
attr title "pause units sent, sum"
scalar ColdChainNetwork.gateway.eth[0].mac rxPkOk:count 29
attr interpolationmode none
attr recordingmode count
attr source rxPkOk
attr title "packets received OK, count"
scalar ColdChainNetwork.gateway.eth[0].mac rxPkOk:sum(packetBytes) 1856
attr interpolationmode none
attr recordingmode sum(packetBytes)
attr source rxPkOk
attr title "packets received OK, sum(packetBytes)"
scalar ColdChainNetwork.gateway.eth[0].mac txPk:count 486
attr interpolationmode none
attr recordingmode count
attr source packetSentToLower
attr title "packets transmitted, count"
scalar ColdChainNetwork.gateway.eth[0].mac txPk:sum(packetBytes) 34303
attr interpolationmode none
attr recordingmode sum(packetBytes)
attr source packetSentToLower
attr title "packets transmitted, sum(packetBytes)"
scalar ColdChainNetwork.gateway.eth[0].mac packetReceivedFromUpper:count 486
attr interpolationmode none
attr recordingmode count
attr source packetReceivedFromUpper
attr title "packet bytes from higher layer, count"
scalar ColdChainNetwork.gateway.eth[0].mac packetReceivedFromUpper:sum(packetBytes) 33781
attr interpolationmode none
attr recordingmode sum(packetBytes)
attr source packetReceivedFromUpper
attr title "packet bytes from higher layer, sum(packetBytes)"
scalar ColdChainNetwork.gateway.eth[0].mac passedUpPk:count 29
attr interpolationmode none
attr recordingmode count
attr source packetSentToUpper
attr title "packets passed to higher layer, count"
scalar ColdChainNetwork.gateway.eth[0].mac passedUpPk:sum(packetBytes) 1856
attr interpolationmode none
attr recordingmode sum(packetBytes)
attr source packetSentToUpper
attr title "packets passed to higher layer, sum(packetBytes)"
scalar ColdChainNetwork.gateway.eth[0].mac packetDropIncorrectlyReceived:count 0
attr interpolationmode none
attr recordingmode count
attr source packetDropReasonIsIncorrectlyReceived(packetDropped)
attr title "packet drop: incorrectly received, count"
scalar ColdChainNetwork.gateway.eth[0].mac packetDropIncorrectlyReceived:sum(packetBytes) 0
attr interpolationmode none
attr recordingmode sum(packetBytes)
attr source packetDropReasonIsIncorrectlyReceived(packetDropped)
attr title "packet drop: incorrectly received, sum(packetBytes)"
scalar ColdChainNetwork.gateway.eth[0].mac packetDropInterfaceDown:count 0
attr interpolationmode none
attr recordingmode count
attr source packetDropReasonIsInterfaceDown(packetDropped)
attr title "packet drop: interface down, count"
scalar ColdChainNetwork.gateway.eth[0].mac packetDropInterfaceDown:sum(packetBytes) 0
attr interpolationmode none
attr recordingmode sum(packetBytes)
attr source packetDropReasonIsInterfaceDown(packetDropped)
attr title "packet drop: interface down, sum(packetBytes)"
scalar ColdChainNetwork.gateway.eth[0].mac packetDropNotAddressedToUs:count 0
attr interpolationmode none
attr recordingmode count
attr source packetDropReasonIsNotAddressedToUs(packetDropped)
attr title "packet drop: not addressed to us, count"
scalar ColdChainNetwork.gateway.eth[0].mac packetDropNotAddressedToUs:sum(packetBytes) 0
attr interpolationmode none
attr recordingmode sum(packetBytes)
attr source packetDropReasonIsNotAddressedToUs(packetDropped)
attr title "packet drop: not addressed to us, sum(packetBytes)"
par ColdChainNetwork.gateway.eth[0] typename "\"inet.linklayer.ethernet.EthernetInterface\""
par ColdChainNetwork.gateway.eth[0] displayStringTextFormat "\"%a (%i)\\n%m\""
par ColdChainNetwork.gateway.eth[0] recordPcap false
par ColdChainNetwork.gateway.eth[0] numPcapRecorders 0
par ColdChainNetwork.gateway.eth[0] interfaceTableModule "\"ColdChainNetwork.gateway.interfaceTable\""
par ColdChainNetwork.gateway.eth[0] protocol "\"ethernetmac\""
par ColdChainNetwork.gateway.eth[0] address "\"0A-AA-00-00-00-05\""
attr mutable ""
par ColdChainNetwork.gateway.eth[0] duplexMode true
par ColdChainNetwork.gateway.eth[0] csmacdSupport false
par ColdChainNetwork.gateway.eth[0] bitrate 0bps
attr unit bps
par ColdChainNetwork.gateway.eth[0] fcsMode "\"declared\""
attr enum declared,computed
scalar ColdChainNetwork.gateway.eth[0] packetDropInterfaceDown:count 0
attr interpolationmode none
attr recordingmode count
attr source packetDropReasonIsInterfaceDown(packetDropped)
attr title "packet drops: interface down, count"
scalar ColdChainNetwork.gateway.eth[0] packetDropInterfaceDown:sum(packetBytes) 0
attr interpolationmode none
attr recordingmode sum(packetBytes)
attr source packetDropReasonIsInterfaceDown(packetDropped)
attr title "packet drops: interface down, sum(packetBytes)"
scalar ColdChainNetwork.gateway.eth[0] packetDropNoCarrier:count 0
attr interpolationmode none
attr recordingmode count
attr source packetDropReasonIsNoCarrier(packetDropped)
attr title "packet drops: no carrier, count"
scalar ColdChainNetwork.gateway.eth[0] packetDropNoCarrier:sum(packetBytes) 0
attr interpolationmode none
attr recordingmode sum(packetBytes)
attr source packetDropReasonIsNoCarrier(packetDropped)
attr title "packet drops: no carrier, sum(packetBytes)"
par ColdChainNetwork.gateway.udp typename "\"inet.transportlayer.udp.Udp\""
par ColdChainNetwork.gateway.udp interfaceTableModule "\"ColdChainNetwork.gateway.interfaceTable\""
par ColdChainNetwork.gateway.udp icmpModule "\"^.ipv4.icmp\""
par ColdChainNetwork.gateway.udp icmpv6Module "\"^.ipv6.icmpv6\""
par ColdChainNetwork.gateway.udp crcMode "\"declared\""
attr enum disabled,declared,computed
par ColdChainNetwork.gateway.udp defaultMulticastLoop true
scalar ColdChainNetwork.gateway.udp packetReceived:count 0
attr interpolationmode none
attr recordingmode count
attr source packetReceived
attr title "packets received, count"
scalar ColdChainNetwork.gateway.udp packetReceived:sum(packetBytes) 0
attr interpolationmode none
attr recordingmode sum(packetBytes)
attr source packetReceived
attr title "packets received, sum(packetBytes)"
scalar ColdChainNetwork.gateway.udp packetSent:count 457
attr interpolationmode none
attr recordingmode count
attr source packetSent
attr title "packets sent, count"
scalar ColdChainNetwork.gateway.udp packetSent:sum(packetBytes) 15081
attr interpolationmode none
attr recordingmode sum(packetBytes)
attr source packetSent
attr title "packets sent, sum(packetBytes)"
scalar ColdChainNetwork.gateway.udp passedUpPk:count 0
attr interpolationmode none
attr recordingmode count
attr source packetSentToUpper
attr title "packets passed up, count"
scalar ColdChainNetwork.gateway.udp droppedPkWrongPort:count 0
attr interpolationmode none
attr recordingmode count
attr source packetDropReasonIsNoPortFound(packetDropped)
attr title "packets dropped (wrong port), count"
scalar ColdChainNetwork.gateway.udp droppedPkBadChecksum:count 0
attr interpolationmode none
attr recordingmode count
attr source packetDropReasonIsIncorrectlyReceived(packetDropped)
attr title "packets dropped (checksum error), count"
par ColdChainNetwork.gateway.ipv4.transportIn.channel typename "\"ned.IdealChannel\""
par ColdChainNetwork.gateway.ipv4.up.out[0].channel typename "\"ned.IdealChannel\""
par ColdChainNetwork.gateway.ipv4.lp.out[2].channel typename "\"ned.IdealChannel\""
par ColdChainNetwork.gateway.ipv4.ifIn.channel typename "\"ned.IdealChannel\""
par ColdChainNetwork.gateway.ipv4.configurator typename "\"inet.networklayer.configurator.ipv4.Ipv4NodeConfigurator\""
par ColdChainNetwork.gateway.ipv4.configurator interfaceTableModule "\"ColdChainNetwork.gateway.interfaceTable\""
par ColdChainNetwork.gateway.ipv4.configurator routingTableModule "\"ColdChainNetwork.gateway.ipv4.routingTable\""
par ColdChainNetwork.gateway.ipv4.configurator networkConfiguratorModule "\"configurator\""
par ColdChainNetwork.gateway.ipv4.configurator configureRoutingTable true
par ColdChainNetwork.gateway.ipv4.routingTable typename "\"inet.networklayer.ipv4.Ipv4RoutingTable\""
par ColdChainNetwork.gateway.ipv4.routingTable interfaceTableModule "\"ColdChainNetwork.gateway.interfaceTable\""
par ColdChainNetwork.gateway.ipv4.routingTable routerId "\"auto\""
par ColdChainNetwork.gateway.ipv4.routingTable netmaskRoutes "\"*\""
par ColdChainNetwork.gateway.ipv4.routingTable forwarding false
par ColdChainNetwork.gateway.ipv4.routingTable multicastForwarding false
par ColdChainNetwork.gateway.ipv4.routingTable useAdminDist false
par ColdChainNetwork.gateway.ipv4.routingTable routingFile "\"\""
par ColdChainNetwork.gateway.ipv4.natTable typename "\"inet.networklayer.ipv4.Ipv4NatTable\""
par ColdChainNetwork.gateway.ipv4.natTable networkProtocolModule "\"^.ip\""
par ColdChainNetwork.gateway.ipv4.natTable config "<config/> at content:1"
par ColdChainNetwork.gateway.ipv4.up typename "\"inet.common.MessageDispatcher\""
par ColdChainNetwork.gateway.ipv4.up displayStringTextFormat "\"processed %p pk (%l)\""
par ColdChainNetwork.gateway.ipv4.up forwardServiceRegistration true
par ColdChainNetwork.gateway.ipv4.up forwardProtocolRegistration true
par ColdChainNetwork.gateway.ipv4.igmp typename "\"inet.networklayer.ipv4.Igmpv2\""
par ColdChainNetwork.gateway.ipv4.igmp interfaceTableModule "\"ColdChainNetwork.gateway.interfaceTable\""
par ColdChainNetwork.gateway.ipv4.igmp routingTableModule "\"ColdChainNetwork.gateway.ipv4.routingTable\""
par ColdChainNetwork.gateway.ipv4.igmp crcMode "\"declared\""
attr enum declared,computed
par ColdChainNetwork.gateway.ipv4.igmp enabled true
par ColdChainNetwork.gateway.ipv4.igmp robustnessVariable 2
par ColdChainNetwork.gateway.ipv4.igmp queryInterval 125s
attr unit s
par ColdChainNetwork.gateway.ipv4.igmp queryResponseInterval 10s
attr unit s
par ColdChainNetwork.gateway.ipv4.igmp groupMembershipInterval 260s
attr unit s
par ColdChainNetwork.gateway.ipv4.igmp otherQuerierPresentInterval 255s
attr unit s
par ColdChainNetwork.gateway.ipv4.igmp startupQueryInterval 31.25s
attr unit s
par ColdChainNetwork.gateway.ipv4.igmp startupQueryCount 2
par ColdChainNetwork.gateway.ipv4.igmp lastMemberQueryInterval 1s
attr unit s
par ColdChainNetwork.gateway.ipv4.igmp lastMemberQueryCount 2
par ColdChainNetwork.gateway.ipv4.igmp unsolicitedReportInterval 10s
attr unit s
par ColdChainNetwork.gateway.ipv4.icmp typename "\"inet.networklayer.ipv4.Icmp\""
par ColdChainNetwork.gateway.ipv4.icmp interfaceTableModule "\"ColdChainNetwork.gateway.interfaceTable\""
par ColdChainNetwork.gateway.ipv4.icmp routingTableModule "\"ColdChainNetwork.gateway.ipv4.routingTable\""
par ColdChainNetwork.gateway.ipv4.icmp crcMode "\"declared\""
attr enum declared,computed
attr mutable ""
par ColdChainNetwork.gateway.ipv4.icmp quoteLength 8B
attr mutable ""
attr unit B
par ColdChainNetwork.gateway.ipv4.mp typename "\"inet.common.MessageDispatcher\""
par ColdChainNetwork.gateway.ipv4.mp displayStringTextFormat "\"processed %p pk (%l)\""
par ColdChainNetwork.gateway.ipv4.mp forwardServiceRegistration true
par ColdChainNetwork.gateway.ipv4.mp forwardProtocolRegistration true
par ColdChainNetwork.gateway.ipv4.ip typename "\"inet.networklayer.ipv4.Ipv4\""
par ColdChainNetwork.gateway.ipv4.ip interfaceTableModule "\"ColdChainNetwork.gateway.interfaceTable\""
par ColdChainNetwork.gateway.ipv4.ip routingTableModule "\"ColdChainNetwork.gateway.ipv4.routingTable\""
par ColdChainNetwork.gateway.ipv4.ip arpModule "\"ColdChainNetwork.gateway.ipv4.arp\""
par ColdChainNetwork.gateway.ipv4.ip icmpModule "\"ColdChainNetwork.gateway.ipv4.icmp\""
par ColdChainNetwork.gateway.ipv4.ip crcMode "\"declared\""
attr enum declared,computed
par ColdChainNetwork.gateway.ipv4.ip timeToLive 32
par ColdChainNetwork.gateway.ipv4.ip multicastTimeToLive 32
par ColdChainNetwork.gateway.ipv4.ip fragmentTimeout 60s
attr unit s
par ColdChainNetwork.gateway.ipv4.ip limitedBroadcast false
par ColdChainNetwork.gateway.ipv4.ip directBroadcastInterfaces "\"\""
scalar ColdChainNetwork.gateway.ipv4.ip packetDropAddressResolutionFailed:count 0
attr interpolationmode none
attr recordingmode count
attr source packetDropReasonIsAddressResolutionFailed(packetDropped)
attr title "packet drop: address resolution failed, count"
scalar ColdChainNetwork.gateway.ipv4.ip packetDropAddressResolutionFailed:sum(packetBytes) 0
attr interpolationmode none
attr recordingmode sum(packetBytes)
attr source packetDropReasonIsAddressResolutionFailed(packetDropped)
attr title "packet drop: address resolution failed, sum(packetBytes)"
scalar ColdChainNetwork.gateway.ipv4.ip packetDropHopLimitReached:count 0
attr interpolationmode none
attr recordingmode count
attr source packetDropReasonIsHopLimitReached(packetDropped)
attr title "packet drop: hop limit reached, count"
scalar ColdChainNetwork.gateway.ipv4.ip packetDropHopLimitReached:sum(packetBytes) 0
attr interpolationmode none
attr recordingmode sum(packetBytes)
attr source packetDropReasonIsHopLimitReached(packetDropped)
attr title "packet drop: hop limit reached, sum(packetBytes)"
scalar ColdChainNetwork.gateway.ipv4.ip packetDropForwardingDisabled:count 0
attr interpolationmode none
attr recordingmode count
attr source packetDropReasonIsForwardingDisabled(packetDropped)
attr title "packet drop: forwarding disabled, count"
scalar ColdChainNetwork.gateway.ipv4.ip packetDropForwardingDisabled:sum(packetBytes) 0
attr interpolationmode none
attr recordingmode sum(packetBytes)
attr source packetDropReasonIsForwardingDisabled(packetDropped)
attr title "packet drop: forwarding disabled, sum(packetBytes)"
scalar ColdChainNetwork.gateway.ipv4.ip packetDropNoInterfaceFound:count 0
attr interpolationmode none
attr recordingmode count
attr source packetDropReasonIsNoInterfaceFound(packetDropped)
attr title "packet drop: no interface found, count"
scalar ColdChainNetwork.gateway.ipv4.ip packetDropNoInterfaceFound:sum(packetBytes) 0
attr interpolationmode none
attr recordingmode sum(packetBytes)
attr source packetDropReasonIsNoInterfaceFound(packetDropped)
attr title "packet drop: no interface found, sum(packetBytes)"
scalar ColdChainNetwork.gateway.ipv4.ip packetDropNoRouteFound:count 0
attr interpolationmode none
attr recordingmode count
attr source packetDropReasonIsNoRouteFound(packetDropped)
attr title "packet drop: no route found, count"
scalar ColdChainNetwork.gateway.ipv4.ip packetDropNoRouteFound:sum(packetBytes) 0
attr interpolationmode none
attr recordingmode sum(packetBytes)
attr source packetDropReasonIsNoRouteFound(packetDropped)
attr title "packet drop: no route found, sum(packetBytes)"
scalar ColdChainNetwork.gateway.ipv4.ip packetDropUndefined:count 0
attr interpolationmode none
attr recordingmode count
attr source packetDropReasonIsUndefined(packetDropped)
attr title "packet drop: undefined, count"
scalar ColdChainNetwork.gateway.ipv4.ip packetDropUndefined:sum(packetBytes) 0
attr interpolationmode none
attr recordingmode sum(packetBytes)
attr source packetDropReasonIsUndefined(packetDropped)
attr title "packet drop: undefined, sum(packetBytes)"
par ColdChainNetwork.gateway.ipv4.arp typename "\"inet.networklayer.arp.ipv4.Arp\""
par ColdChainNetwork.gateway.ipv4.arp interfaceTableModule "\"ColdChainNetwork.gateway.interfaceTable\""
par ColdChainNetwork.gateway.ipv4.arp routingTableModule "\"ColdChainNetwork.gateway.ipv4.routingTable\""
par ColdChainNetwork.gateway.ipv4.arp retryTimeout 1s
attr unit s
par ColdChainNetwork.gateway.ipv4.arp retryCount 3
par ColdChainNetwork.gateway.ipv4.arp cacheTimeout 120s
attr unit s
par ColdChainNetwork.gateway.ipv4.arp proxyArpInterfaces "\"*\""
scalar ColdChainNetwork.gateway.ipv4.arp arpResolutionFailed:count 0
attr recordingmode count
attr title "ARP failed resolutions, count"
scalar ColdChainNetwork.gateway.ipv4.arp arpResolutionCompleted:count 29
attr recordingmode count
attr title "ARP completed resolutions, count"
scalar ColdChainNetwork.gateway.ipv4.arp arpResolutionInitiated:count 29
attr recordingmode count
attr title "ARP initiated resolutions, count"
scalar ColdChainNetwork.gateway.ipv4.arp arpReplySent:count 0
attr recordingmode count
attr source arpReplySent
attr title "ARP replies sent, count"
scalar ColdChainNetwork.gateway.ipv4.arp arpReplySent:sum(packetBytes) 0
attr recordingmode sum(packetBytes)
attr source arpReplySent
attr title "ARP replies sent, sum(packetBytes)"
scalar ColdChainNetwork.gateway.ipv4.arp arpRequestSent:count 29
attr recordingmode count
attr source arpRequestSent
attr title "ARP request sent, count"
scalar ColdChainNetwork.gateway.ipv4.arp arpRequestSent:sum(packetBytes) 812
attr recordingmode sum(packetBytes)
attr source arpRequestSent
attr title "ARP request sent, sum(packetBytes)"
par ColdChainNetwork.gateway.ipv4.lp typename "\"inet.common.MessageDispatcher\""
par ColdChainNetwork.gateway.ipv4.lp displayStringTextFormat "\"processed %p pk (%l)\""
par ColdChainNetwork.gateway.ipv4.lp forwardServiceRegistration true
par ColdChainNetwork.gateway.ipv4.lp forwardProtocolRegistration true
par ColdChainNetwork.gateway.ipv4 typename "\"inet.networklayer.ipv4.Ipv4NetworkLayer\""
par ColdChainNetwork.gateway.ipv4 forwarding false
par ColdChainNetwork.gateway.ipv4 multicastForwarding false
par ColdChainNetwork.gateway.ipv4 interfaceTableModule "\"ColdChainNetwork.gateway.interfaceTable\""
par ColdChainNetwork.gateway.ipv4 displayStringTextFormat "\"%i\""
par ColdChainNetwork.gateway.routingTable typename "\"inet.networklayer.ipv4.Ipv4RoutingTable\""
par ColdChainNetwork.gateway.routingTable interfaceTableModule "\"ColdChainNetwork.gateway.interfaceTable\""
par ColdChainNetwork.gateway.routingTable routerId "\"auto\""
par ColdChainNetwork.gateway.routingTable netmaskRoutes "\"*\""
par ColdChainNetwork.gateway.routingTable forwarding true
par ColdChainNetwork.gateway.routingTable multicastForwarding false
par ColdChainNetwork.gateway.routingTable useAdminDist false
par ColdChainNetwork.gateway.routingTable routingFile "\"\""
par ColdChainNetwork.gateway.ethernet typename "\"inet.linklayer.ethernet.basic.EthernetEncapsulation\""
par ColdChainNetwork.gateway.ethernet registerProtocol true
par ColdChainNetwork.gateway.ethernet interfaceTableModule "\"ColdChainNetwork.gateway.interfaceTable\""
par ColdChainNetwork.gateway.ethernet fcsMode "\"declared\""
attr enum declared,computed
par ColdChainNetwork.gateway.ethernet stopOperationExtraTime -1s
attr unit s
par ColdChainNetwork.gateway.ethernet stopOperationTimeout 2s
attr unit s
scalar ColdChainNetwork.gateway.ethernet pauseSent:count 0
attr recordingmode count
attr title "pause sent, count"
scalar ColdChainNetwork.gateway.ethernet pauseSent:sum 0
attr recordingmode sum
attr title "pause sent, sum"
scalar ColdChainNetwork.gateway.ethernet decapPk:count 29
attr interpolationmode none
attr recordingmode count
attr source decapPk
attr title "packets decapsulated, count"
scalar ColdChainNetwork.gateway.ethernet decapPk:sum(packetBytes) 1334
attr interpolationmode none
attr recordingmode sum(packetBytes)
attr source decapPk
attr title "packets decapsulated, sum(packetBytes)"
scalar ColdChainNetwork.gateway.ethernet encapPk:count 486
attr interpolationmode none
attr recordingmode count
attr source encapPk
attr title "packets encapsulated, count"
scalar ColdChainNetwork.gateway.ethernet encapPk:sum(packetBytes) 25033
attr interpolationmode none
attr recordingmode sum(packetBytes)
attr source encapPk
attr title "packets encapsulated, sum(packetBytes)"
par ColdChainNetwork.gateway.energyStorage typename "\"inet.power.storage.IdealEpEnergyStorage\""
scalar ColdChainNetwork.gateway.energyStorage residualEnergyCapacity:last nan
attr interpolationmode linear
attr recordingmode last
attr source residualEnergyCapacityChanged
attr title "Residual energy capacity, last"
par ColdChainNetwork.gateway typename "\"LoRaGateway\""
par ColdChainNetwork.gateway numEthInterfaces 0
par ColdChainNetwork.gateway numWlanInterfaces 1
par ColdChainNetwork.gateway hasIpv4 true
par ColdChainNetwork.gateway networkLayerType "\"Ipv4NetworkLayer\""
par ColdChainNetwork.gateway routingTableType "\"Ipv4RoutingTable\""
par ColdChainNetwork.gateway numUdpApps 0
par ColdChainNetwork.gateway hasUdp true
par ColdChainNetwork.gateway udpType "\"\""
par ColdChainNetwork.gateway hasEnergyStorage true
par ColdChainNetwork.server.ethg$i[0].channel typename "\"ned.IdealChannel\""
par ColdChainNetwork.server.eth[0].phys$o.channel typename "\"ned.IdealChannel\""
par ColdChainNetwork.server.energyStorage typename "\"inet.power.storage.IdealEpEnergyStorage\""
scalar ColdChainNetwork.server.energyStorage residualEnergyCapacity:last nan
attr interpolationmode linear
attr recordingmode last
attr source residualEnergyCapacityChanged
attr title "Residual energy capacity, last"
par ColdChainNetwork.server.mobility typename "\"inet.mobility.static.StationaryMobility\""
par ColdChainNetwork.server.mobility subjectModule "\"^\""
par ColdChainNetwork.server.mobility coordinateSystemModule "\"\""
par ColdChainNetwork.server.mobility displayStringTextFormat "\"p: %p\\nv: %v\""
attr mutable ""
par ColdChainNetwork.server.mobility updateDisplayString true
par ColdChainNetwork.server.mobility constraintAreaMinX "-inf m"
attr unit m
par ColdChainNetwork.server.mobility constraintAreaMinY "-inf m"
attr unit m
par ColdChainNetwork.server.mobility constraintAreaMinZ "-inf m"
attr unit m
par ColdChainNetwork.server.mobility constraintAreaMaxX "inf m"
attr unit m
par ColdChainNetwork.server.mobility constraintAreaMaxY "inf m"
attr unit m
par ColdChainNetwork.server.mobility constraintAreaMaxZ "inf m"
attr unit m
par ColdChainNetwork.server.mobility initialX 400m
attr unit m
par ColdChainNetwork.server.mobility initialY 250m
attr unit m
par ColdChainNetwork.server.mobility initialZ 0m
attr unit m
par ColdChainNetwork.server.mobility initialLatitude "nan deg"
attr unit deg
par ColdChainNetwork.server.mobility initialLongitude "nan deg"
attr unit deg
par ColdChainNetwork.server.mobility initialAltitude 0m
attr unit m
par ColdChainNetwork.server.mobility initialHeading 0deg
attr unit deg
par ColdChainNetwork.server.mobility initialElevation 0deg
attr unit deg
par ColdChainNetwork.server.mobility initialBank 0deg
attr unit deg
par ColdChainNetwork.server.mobility initFromDisplayString false
par ColdChainNetwork.server.mobility updateFromDisplayString true
par ColdChainNetwork.server.interfaceTable typename "\"inet.networklayer.common.InterfaceTable\""
par ColdChainNetwork.server.interfaceTable displayAddresses false
par ColdChainNetwork.server.cb typename "\"inet.common.MessageDispatcher\""
par ColdChainNetwork.server.cb displayStringTextFormat "\"processed %p pk (%l)\""
par ColdChainNetwork.server.cb forwardServiceRegistration true
par ColdChainNetwork.server.cb forwardProtocolRegistration true
par ColdChainNetwork.server.bl typename "\"inet.common.MessageDispatcher\""
par ColdChainNetwork.server.bl displayStringTextFormat "\"processed %p pk (%l)\""
par ColdChainNetwork.server.bl forwardServiceRegistration true
par ColdChainNetwork.server.bl forwardProtocolRegistration true
par ColdChainNetwork.server.ethernet typename "\"inet.linklayer.ethernet.basic.EthernetEncapsulation\""
par ColdChainNetwork.server.ethernet registerProtocol true
par ColdChainNetwork.server.ethernet interfaceTableModule "\"ColdChainNetwork.server.interfaceTable\""
par ColdChainNetwork.server.ethernet fcsMode "\"declared\""
attr enum declared,computed
par ColdChainNetwork.server.ethernet stopOperationExtraTime -1s
attr unit s
par ColdChainNetwork.server.ethernet stopOperationTimeout 2s
attr unit s
scalar ColdChainNetwork.server.ethernet pauseSent:count 0
attr recordingmode count
attr title "pause sent, count"
scalar ColdChainNetwork.server.ethernet pauseSent:sum 0
attr recordingmode sum
attr title "pause sent, sum"
scalar ColdChainNetwork.server.ethernet decapPk:count 486
attr interpolationmode none
attr recordingmode count
attr source decapPk
attr title "packets decapsulated, count"
scalar ColdChainNetwork.server.ethernet decapPk:sum(packetBytes) 25555
attr interpolationmode none
attr recordingmode sum(packetBytes)
attr source decapPk
attr title "packets decapsulated, sum(packetBytes)"
scalar ColdChainNetwork.server.ethernet encapPk:count 29
attr interpolationmode none
attr recordingmode count
attr source encapPk
attr title "packets encapsulated, count"
scalar ColdChainNetwork.server.ethernet encapPk:sum(packetBytes) 812
attr interpolationmode none
attr recordingmode sum(packetBytes)
attr source encapPk
attr title "packets encapsulated, sum(packetBytes)"
par ColdChainNetwork.server.li typename "\"inet.common.MessageDispatcher\""
par ColdChainNetwork.server.li displayStringTextFormat "\"processed %p pk (%l)\""
par ColdChainNetwork.server.li forwardServiceRegistration true
par ColdChainNetwork.server.li forwardProtocolRegistration true
par ColdChainNetwork.server.lo[0].upperLayerIn.channel typename "\"ned.IdealChannel\""
par ColdChainNetwork.server.lo[0].lo.upperLayerOut.channel typename "\"ned.IdealChannel\""
par ColdChainNetwork.server.lo[0].lo typename "\"inet.linklayer.loopback.Loopback\""
par ColdChainNetwork.server.lo[0].lo interfaceTableModule "\"ColdChainNetwork.server.interfaceTable\""
par ColdChainNetwork.server.lo[0].lo mtu 4470B
attr unit B
scalar ColdChainNetwork.server.lo[0].lo rcvdPkFromHl:count 0
attr interpolationmode none
attr recordingmode count
attr source packetReceivedFromUpper
attr title "packets received from higher layer, count"
scalar ColdChainNetwork.server.lo[0].lo rcvdPkFromHl:sum(packetBytes) 0
attr interpolationmode none
attr recordingmode sum(packetBytes)
attr source packetReceivedFromUpper
attr title "packets received from higher layer, sum(packetBytes)"
scalar ColdChainNetwork.server.lo[0].lo passedUpPk:count 0
attr interpolationmode none
attr recordingmode count
attr source packetSentToUpper
attr title "packets passed to higher layer, count"
scalar ColdChainNetwork.server.lo[0].lo passedUpPk:sum(packetBytes) 0
attr interpolationmode none
attr recordingmode sum(packetBytes)
attr source packetSentToUpper
attr title "packets passed to higher layer, sum(packetBytes)"
par ColdChainNetwork.server.lo[0] typename "\"inet.linklayer.loopback.LoopbackInterface\""
par ColdChainNetwork.server.lo[0] displayStringTextFormat "\"%a (%i)\\n%m\""
par ColdChainNetwork.server.lo[0] recordPcap false
par ColdChainNetwork.server.lo[0] numPcapRecorders 0
par ColdChainNetwork.server.lo[0] interfaceTableModule "\"ColdChainNetwork.server.interfaceTable\""
scalar ColdChainNetwork.server.lo[0] packetDropInterfaceDown:count 0
attr interpolationmode none
attr recordingmode count
attr source packetDropReasonIsInterfaceDown(packetDropped)
attr title "packet drops: interface down, count"
scalar ColdChainNetwork.server.lo[0] packetDropInterfaceDown:sum(packetBytes) 0
attr interpolationmode none
attr recordingmode sum(packetBytes)
attr source packetDropReasonIsInterfaceDown(packetDropped)
attr title "packet drops: interface down, sum(packetBytes)"
scalar ColdChainNetwork.server.lo[0] packetDropNoCarrier:count 0
attr interpolationmode none
attr recordingmode count
attr source packetDropReasonIsNoCarrier(packetDropped)
attr title "packet drops: no carrier, count"
scalar ColdChainNetwork.server.lo[0] packetDropNoCarrier:sum(packetBytes) 0
attr interpolationmode none
attr recordingmode sum(packetBytes)
attr source packetDropReasonIsNoCarrier(packetDropped)
attr title "packet drops: no carrier, sum(packetBytes)"
par ColdChainNetwork.server.eth[0].mac.phys$o.channel typename "\"ned.IdealChannel\""
par ColdChainNetwork.server.eth[0].phys$i.channel typename "\"ned.IdealChannel\""
par ColdChainNetwork.server.eth[0].upperLayerIn.channel typename "\"ned.IdealChannel\""
par ColdChainNetwork.server.eth[0].mac.upperLayerOut.channel typename "\"ned.IdealChannel\""
par ColdChainNetwork.server.eth[0].queue typename "\"inet.linklayer.ethernet.common.EthernetQueue\""
par ColdChainNetwork.server.eth[0].queue displayStringTextFormat "\"contains %p pk (%l) pushed %u\\npulled %o removed %r dropped %d\""
par ColdChainNetwork.server.eth[0].queue packetCapacity 1000
par ColdChainNetwork.server.eth[0].queue dataCapacity -1b
attr unit b
par ColdChainNetwork.server.eth[0].queue dropperClass "\"inet::queueing::PacketAtCollectionEndDropper\""
par ColdChainNetwork.server.eth[0].queue comparatorClass "\"inet::EthernetFrameTypeComparator\""
par ColdChainNetwork.server.eth[0].queue bufferModule "\"\""
scalar ColdChainNetwork.server.eth[0].queue queueLength:last 0
attr autoWarmupFilter false
attr interpolationmode sample-hold
attr recordingmode last
attr source "warmup(atomic(constant0(packetPushEnded) + count(packetPushStarted) - count(packetPulled) - count(packetRemoved) - count(packetDropped)))"
attr title "queue length, last"
attr unit pk
scalar ColdChainNetwork.server.eth[0].queue queueLength:max 0
attr autoWarmupFilter false
attr interpolationmode sample-hold
attr recordingmode max
attr source "warmup(atomic(constant0(packetPushEnded) + count(packetPushStarted) - count(packetPulled) - count(packetRemoved) - count(packetDropped)))"
attr title "queue length, max"
attr unit pk
scalar ColdChainNetwork.server.eth[0].queue queueLength:timeavg 0
attr autoWarmupFilter false
attr interpolationmode sample-hold
attr recordingmode timeavg
attr source "warmup(atomic(constant0(packetPushEnded) + count(packetPushStarted) - count(packetPulled) - count(packetRemoved) - count(packetDropped)))"
attr title "queue length, timeavg"
attr unit pk
scalar ColdChainNetwork.server.eth[0].queue queueBitLength:last 0
attr autoWarmupFilter false
attr interpolationmode sample-hold
attr recordingmode last
attr source "warmup(atomic(constant0(packetPushEnded) + sum(packetLength(packetPushStarted)) - sum(packetLength(packetPulled)) - sum(packetLength(packetRemoved)) - sum(packetLength(packetDropped))))"
attr title "queue bit length, last"
attr unit b
scalar ColdChainNetwork.server.eth[0].queue queueBitLength:max 0
attr autoWarmupFilter false
attr interpolationmode sample-hold
attr recordingmode max
attr source "warmup(atomic(constant0(packetPushEnded) + sum(packetLength(packetPushStarted)) - sum(packetLength(packetPulled)) - sum(packetLength(packetRemoved)) - sum(packetLength(packetDropped))))"
attr title "queue bit length, max"
attr unit b
scalar ColdChainNetwork.server.eth[0].queue queueBitLength:timeavg 0
attr autoWarmupFilter false
attr interpolationmode sample-hold
attr recordingmode timeavg
attr source "warmup(atomic(constant0(packetPushEnded) + sum(packetLength(packetPushStarted)) - sum(packetLength(packetPulled)) - sum(packetLength(packetRemoved)) - sum(packetLength(packetDropped))))"
attr title "queue bit length, timeavg"
attr unit b
statistic ColdChainNetwork.server.eth[0].queue queueingTime:histogram
field count 29
field mean 0
field stddev 0
field min 0
field max 0
field sum 0
field sqrsum 0
attr interpolationmode none
attr recordingmode histogram
attr source queueingTime(packetPulled)
attr title "queueing times"
attr unit s
bin	-inf	0
bin	-0.5	0
bin	-0.48	0
bin	-0.46	0
bin	-0.44	0
bin	-0.42	0
bin	-0.4	0
bin	-0.38	0
bin	-0.36	0
bin	-0.34	0
bin	-0.32	0
bin	-0.3	0
bin	-0.28	0
bin	-0.26	0
bin	-0.24	0
bin	-0.22	0
bin	-0.2	0
bin	-0.18	0
bin	-0.16	0
bin	-0.14	0
bin	-0.12	0
bin	-0.1	0
bin	-0.08	0
bin	-0.06	0
bin	-0.04	0
bin	-0.02	0
bin	0	29
bin	0.02	0
bin	0.04	0
bin	0.06	0
bin	0.08	0
bin	0.1	0
bin	0.12	0
bin	0.14	0
bin	0.16	0
bin	0.18	0
bin	0.2	0
bin	0.22	0
bin	0.24	0
bin	0.26	0
bin	0.28	0
bin	0.3	0
bin	0.32	0
bin	0.34	0
bin	0.36	0
bin	0.38	0
bin	0.4	0
bin	0.42	0
bin	0.44	0
bin	0.46	0
bin	0.48	0
bin	0.5	0
scalar ColdChainNetwork.server.eth[0].queue outgoingPackets:count 29
attr recordingmode count
attr source packetPulled
attr title "outgoing packets, count"
attr unit pk
scalar ColdChainNetwork.server.eth[0].queue outgoingPacketLengths:sum 10672
attr interpolationmode none
attr recordingmode sum
attr source packetLength(packetPulled)
attr title "outgoing packet lengths, sum"
attr unit b
statistic ColdChainNetwork.server.eth[0].queue outgoingPacketLengths:histogram
field count 29
field mean 368
field stddev 0
field min 368
field max 368
field sum 10672
field sqrsum 3927296
attr interpolationmode none
attr recordingmode histogram
attr source packetLength(packetPulled)
attr title "outgoing packet lengths"
attr unit b
bin	-inf	0
bin	367	0
bin	368	29
bin	369	0
statistic ColdChainNetwork.server.eth[0].queue flowQueueingTime:histogram
field count 0
field mean nan
field stddev nan
field min nan
field max nan
field sum 0
field sqrsum 0
attr interpolationmode none
attr recordingmode histogram
attr source queueingTime(demuxFlow(packetPulled))
attr title "flow queueing times"
attr unit s
bin	-inf	0
bin	0	0
bin	1	0
scalar ColdChainNetwork.server.eth[0].queue incomingPackets:count 29
attr recordingmode count
attr source packetPushStarted
attr title "incoming packets, count"
attr unit pk
scalar ColdChainNetwork.server.eth[0].queue incomingPacketLengths:sum 10672
attr interpolationmode none
attr recordingmode sum
attr source packetLength(packetPushStarted)
attr title "incoming packet lengths, sum"
attr unit b
statistic ColdChainNetwork.server.eth[0].queue incomingPacketLengths:histogram
field count 29
field mean 368
field stddev 0
field min 368
field max 368
field sum 10672
field sqrsum 3927296
attr interpolationmode none
attr recordingmode histogram
attr source packetLength(packetPushStarted)
attr title "incoming packet lengths"
attr unit b
bin	-inf	0
bin	367	0
bin	368	29
bin	369	0
scalar ColdChainNetwork.server.eth[0].queue droppedPacketsQueueOverflow:count 0
attr interpolationmode none
attr recordingmode count
attr source packetDropReasonIsQueueOverflow(packetDropped)
attr title "dropped packets: queue overflow, count"
attr unit pk
scalar ColdChainNetwork.server.eth[0].queue droppedPacketLengthsQueueOverflow:sum 0
attr interpolationmode none
attr recordingmode sum
attr source packetLength(packetDropReasonIsQueueOverflow(packetDropped))
attr title "dropped packet lengths: queue overflow, sum"
attr unit b
par ColdChainNetwork.server.eth[0].mac typename "\"inet.linklayer.ethernet.basic.EthernetMac\""
par ColdChainNetwork.server.eth[0].mac interfaceTableModule "\"ColdChainNetwork.server.interfaceTable\""
par ColdChainNetwork.server.eth[0].mac displayStringTextFormat "\"rate: %b\\nsent: %s, rcvd: %r\\nqueue: %q, drop: %d\""
par ColdChainNetwork.server.eth[0].mac sendRawBytes false
par ColdChainNetwork.server.eth[0].mac promiscuous false
par ColdChainNetwork.server.eth[0].mac duplexMode true
par ColdChainNetwork.server.eth[0].mac mtu 1500B
attr unit B
par ColdChainNetwork.server.eth[0].mac fcsMode "\"declared\""
attr enum declared,computed
par ColdChainNetwork.server.eth[0].mac stopOperationExtraTime -1s
attr unit s
par ColdChainNetwork.server.eth[0].mac stopOperationTimeout 2s
attr unit s
scalar ColdChainNetwork.server.eth[0].mac "simulated time" 3600
scalar ColdChainNetwork.server.eth[0].mac full-duplex 1
scalar ColdChainNetwork.server.eth[0].mac "frames/sec sent" 0.0080555555555556
scalar ColdChainNetwork.server.eth[0].mac "frames/sec rcvd" 0.135
scalar ColdChainNetwork.server.eth[0].mac "bits/sec sent" 4.1244444444444
scalar ColdChainNetwork.server.eth[0].mac "bits/sec rcvd" 76.228888888889
scalar ColdChainNetwork.server.eth[0].mac "rx channel idle (%)" 99.999151311111
scalar ColdChainNetwork.server.eth[0].mac "rx channel utilization (%)" 0.00084868888888889
scalar ColdChainNetwork.server.eth[0].mac rxPausePkUnits:count 0
attr interpolationmode none
attr recordingmode count
attr title "pause units received, count"
scalar ColdChainNetwork.server.eth[0].mac rxPausePkUnits:sum 0
attr interpolationmode none
attr recordingmode sum
attr title "pause units received, sum"
scalar ColdChainNetwork.server.eth[0].mac txPausePkUnits:count 0
attr interpolationmode none
attr recordingmode count
attr title "pause units sent, count"
scalar ColdChainNetwork.server.eth[0].mac txPausePkUnits:sum 0
attr interpolationmode none
attr recordingmode sum
attr title "pause units sent, sum"
scalar ColdChainNetwork.server.eth[0].mac rxPkOk:count 486
attr interpolationmode none
attr recordingmode count
attr source rxPkOk
attr title "packets received OK, count"
scalar ColdChainNetwork.server.eth[0].mac rxPkOk:sum(packetBytes) 34303
attr interpolationmode none
attr recordingmode sum(packetBytes)
attr source rxPkOk
attr title "packets received OK, sum(packetBytes)"
scalar ColdChainNetwork.server.eth[0].mac txPk:count 29
attr interpolationmode none
attr recordingmode count
attr source packetSentToLower
attr title "packets transmitted, count"
scalar ColdChainNetwork.server.eth[0].mac txPk:sum(packetBytes) 1856
attr interpolationmode none
attr recordingmode sum(packetBytes)
attr source packetSentToLower
attr title "packets transmitted, sum(packetBytes)"
scalar ColdChainNetwork.server.eth[0].mac packetReceivedFromUpper:count 29
attr interpolationmode none
attr recordingmode count
attr source packetReceivedFromUpper
attr title "packet bytes from higher layer, count"
scalar ColdChainNetwork.server.eth[0].mac packetReceivedFromUpper:sum(packetBytes) 1334
attr interpolationmode none
attr recordingmode sum(packetBytes)
attr source packetReceivedFromUpper
attr title "packet bytes from higher layer, sum(packetBytes)"
scalar ColdChainNetwork.server.eth[0].mac passedUpPk:count 486
attr interpolationmode none
attr recordingmode count
attr source packetSentToUpper
attr title "packets passed to higher layer, count"
scalar ColdChainNetwork.server.eth[0].mac passedUpPk:sum(packetBytes) 34303
attr interpolationmode none
attr recordingmode sum(packetBytes)
attr source packetSentToUpper
attr title "packets passed to higher layer, sum(packetBytes)"
scalar ColdChainNetwork.server.eth[0].mac packetDropIncorrectlyReceived:count 0
attr interpolationmode none
attr recordingmode count
attr source packetDropReasonIsIncorrectlyReceived(packetDropped)
attr title "packet drop: incorrectly received, count"
scalar ColdChainNetwork.server.eth[0].mac packetDropIncorrectlyReceived:sum(packetBytes) 0
attr interpolationmode none
attr recordingmode sum(packetBytes)
attr source packetDropReasonIsIncorrectlyReceived(packetDropped)
attr title "packet drop: incorrectly received, sum(packetBytes)"
scalar ColdChainNetwork.server.eth[0].mac packetDropInterfaceDown:count 0
attr interpolationmode none
attr recordingmode count
attr source packetDropReasonIsInterfaceDown(packetDropped)
attr title "packet drop: interface down, count"
scalar ColdChainNetwork.server.eth[0].mac packetDropInterfaceDown:sum(packetBytes) 0
attr interpolationmode none
attr recordingmode sum(packetBytes)
attr source packetDropReasonIsInterfaceDown(packetDropped)
attr title "packet drop: interface down, sum(packetBytes)"
scalar ColdChainNetwork.server.eth[0].mac packetDropNotAddressedToUs:count 0
attr interpolationmode none
attr recordingmode count
attr source packetDropReasonIsNotAddressedToUs(packetDropped)
attr title "packet drop: not addressed to us, count"
scalar ColdChainNetwork.server.eth[0].mac packetDropNotAddressedToUs:sum(packetBytes) 0
attr interpolationmode none
attr recordingmode sum(packetBytes)
attr source packetDropReasonIsNotAddressedToUs(packetDropped)
attr title "packet drop: not addressed to us, sum(packetBytes)"
par ColdChainNetwork.server.eth[0] typename "\"inet.linklayer.ethernet.EthernetInterface\""
par ColdChainNetwork.server.eth[0] displayStringTextFormat "\"%a (%i)\\n%m\""
par ColdChainNetwork.server.eth[0] recordPcap false
par ColdChainNetwork.server.eth[0] numPcapRecorders 0
par ColdChainNetwork.server.eth[0] interfaceTableModule "\"ColdChainNetwork.server.interfaceTable\""
par ColdChainNetwork.server.eth[0] protocol "\"ethernetmac\""
par ColdChainNetwork.server.eth[0] address "\"0A-AA-00-00-00-06\""
attr mutable ""
par ColdChainNetwork.server.eth[0] duplexMode true
par ColdChainNetwork.server.eth[0] csmacdSupport false
par ColdChainNetwork.server.eth[0] bitrate 0bps
attr unit bps
par ColdChainNetwork.server.eth[0] fcsMode "\"declared\""
attr enum declared,computed
scalar ColdChainNetwork.server.eth[0] packetDropInterfaceDown:count 0
attr interpolationmode none
attr recordingmode count
[...]
scalar ColdChainNetwork.sensor[2].LoRaNic.mac numReceivedBroadcast 0
scalar ColdChainNetwork.sensor[2].LoRaNic.mac packetDropIncorrectlyReceived:count 0
attr interpolationmode none
attr recordingmode count
attr source packetDropReasonIsIncorrectlyReceived(packetDropped)
attr title "packet drop: incorrectly received, count"
scalar ColdChainNetwork.sensor[2].LoRaNic.mac packetDropIncorrectlyReceived:sum(packetBytes) 0
attr interpolationmode none
attr recordingmode sum(packetBytes)
attr source packetDropReasonIsIncorrectlyReceived(packetDropped)
attr title "packet drop: incorrectly received, sum(packetBytes)"
scalar ColdChainNetwork.sensor[2].LoRaNic.mac packetDropNotAddressedToUs:count 0
attr interpolationmode none
attr recordingmode count
attr source packetDropReasonIsNotAddressedToUs(packetDropped)
attr title "packet drop: not addressed to us, count"
scalar ColdChainNetwork.sensor[2].LoRaNic.mac packetDropNotAddressedToUs:sum(packetBytes) 0
attr interpolationmode none
attr recordingmode sum(packetBytes)
attr source packetDropReasonIsNotAddressedToUs(packetDropped)
attr title "packet drop: not addressed to us, sum(packetBytes)"
scalar ColdChainNetwork.sensor[2].LoRaNic.mac packetDropQueueOverflow:count 0
attr interpolationmode none
attr recordingmode count
attr source packetDropReasonIsQueueOverflow(packetDropped)
attr title "packet drop: queue overflow, count"
scalar ColdChainNetwork.sensor[2].LoRaNic.mac packetDropQueueOverflow:sum(packetBytes) 0
attr interpolationmode none
attr recordingmode sum(packetBytes)
attr source packetDropReasonIsQueueOverflow(packetDropped)
attr title "packet drop: queue overflow, sum(packetBytes)"
scalar ColdChainNetwork.sensor[2].LoRaNic.mac packetDropRetryLimitReached:count 0
attr interpolationmode none
attr recordingmode count
attr source packetDropReasonIsRetryLimitReached(packetDropped)
attr title "packet drop: retry limit reached, count"
scalar ColdChainNetwork.sensor[2].LoRaNic.mac packetDropRetryLimitReached:sum(packetBytes) 0
attr interpolationmode none
attr recordingmode sum(packetBytes)
attr source packetDropReasonIsRetryLimitReached(packetDropped)
attr title "packet drop: retry limit reached, sum(packetBytes)"
scalar ColdChainNetwork.sensor[2].LoRaNic.mac linkBroken:count 0
attr interpolationmode none
attr recordingmode count
attr source linkBroken
attr title "link break, count"
par ColdChainNetwork.sensor[2].LoRaNic.radio.antenna.mobility typename "\"inet.mobility.static.StationaryMobility\""
par ColdChainNetwork.sensor[2].LoRaNic.radio.antenna.mobility subjectModule "\"\""
par ColdChainNetwork.sensor[2].LoRaNic.radio.antenna.mobility coordinateSystemModule "\"\""
par ColdChainNetwork.sensor[2].LoRaNic.radio.antenna.mobility displayStringTextFormat "\"p: %p\\nv: %v\""
attr mutable ""
par ColdChainNetwork.sensor[2].LoRaNic.radio.antenna.mobility updateDisplayString true
par ColdChainNetwork.sensor[2].LoRaNic.radio.antenna.mobility constraintAreaMinX "-inf m"
attr unit m
par ColdChainNetwork.sensor[2].LoRaNic.radio.antenna.mobility constraintAreaMinY "-inf m"
attr unit m
par ColdChainNetwork.sensor[2].LoRaNic.radio.antenna.mobility constraintAreaMinZ "-inf m"
attr unit m
par ColdChainNetwork.sensor[2].LoRaNic.radio.antenna.mobility constraintAreaMaxX "inf m"
attr unit m
par ColdChainNetwork.sensor[2].LoRaNic.radio.antenna.mobility constraintAreaMaxY "inf m"
attr unit m
par ColdChainNetwork.sensor[2].LoRaNic.radio.antenna.mobility constraintAreaMaxZ "inf m"
attr unit m
par ColdChainNetwork.sensor[2].LoRaNic.radio.antenna.mobility initialX 0m
attr unit m
par ColdChainNetwork.sensor[2].LoRaNic.radio.antenna.mobility initialY 0m
attr unit m
par ColdChainNetwork.sensor[2].LoRaNic.radio.antenna.mobility initialZ 0m
attr unit m
par ColdChainNetwork.sensor[2].LoRaNic.radio.antenna.mobility initialLatitude "nan deg"
attr unit deg
par ColdChainNetwork.sensor[2].LoRaNic.radio.antenna.mobility initialLongitude "nan deg"
attr unit deg
par ColdChainNetwork.sensor[2].LoRaNic.radio.antenna.mobility initialAltitude 0m
attr unit m
par ColdChainNetwork.sensor[2].LoRaNic.radio.antenna.mobility initialHeading 0deg
attr unit deg
par ColdChainNetwork.sensor[2].LoRaNic.radio.antenna.mobility initialElevation 0deg
attr unit deg
par ColdChainNetwork.sensor[2].LoRaNic.radio.antenna.mobility initialBank 0deg
attr unit deg
par ColdChainNetwork.sensor[2].LoRaNic.radio.antenna.mobility initFromDisplayString false
par ColdChainNetwork.sensor[2].LoRaNic.radio.antenna.mobility updateFromDisplayString true
par ColdChainNetwork.sensor[2].LoRaNic.radio.antenna typename "\"inet.physicallayer.wireless.common.antenna.IsotropicAntenna\""
par ColdChainNetwork.sensor[2].LoRaNic.radio.antenna mobilityModule "\"^.^.^.mobility\""
par ColdChainNetwork.sensor[2].LoRaNic.radio.antenna numAntennas 1
par ColdChainNetwork.sensor[2].LoRaNic.radio.transmitter typename "\"flora.LoRaPhy.LoRaTransmitter\""
par ColdChainNetwork.sensor[2].LoRaNic.radio.transmitter preambleDuration 0.001s
attr unit s
par ColdChainNetwork.sensor[2].LoRaNic.radio.transmitter headerLength 0b
attr unit b
par ColdChainNetwork.sensor[2].LoRaNic.radio.transmitter bitrate 250000bps
attr unit bps
par ColdChainNetwork.sensor[2].LoRaNic.radio.transmitter power 0.0251189W
attr unit W
par ColdChainNetwork.sensor[2].LoRaNic.radio.transmitter centerFrequency 8.68e+08Hz
attr unit Hz
par ColdChainNetwork.sensor[2].LoRaNic.radio.transmitter bandwidth 250000Hz
attr unit Hz
par ColdChainNetwork.sensor[2].LoRaNic.radio.transmitter modulation "\"LoRaModulation\""
scalar ColdChainNetwork.sensor[2].LoRaNic.radio.transmitter LoRaTransmissionCreated:count 234
attr recordingmode count
attr source LoRaTransmissionCreated
par ColdChainNetwork.sensor[2].LoRaNic.radio.receiver typename "\"flora.LoRaPhy.LoRaReceiver\""
par ColdChainNetwork.sensor[2].LoRaNic.radio.receiver snirThreshold -8dB
attr unit dB
par ColdChainNetwork.sensor[2].LoRaNic.radio.receiver snirThresholdMode "\"min\""
attr unit min,mean
par ColdChainNetwork.sensor[2].LoRaNic.radio.receiver energyDetection -90dBm
attr unit dBm
par ColdChainNetwork.sensor[2].LoRaNic.radio.receiver sensitivity -137dBm
attr unit dBm
par ColdChainNetwork.sensor[2].LoRaNic.radio.receiver centerFrequency 8.68e+08Hz
attr unit Hz
par ColdChainNetwork.sensor[2].LoRaNic.radio.receiver bandwidth 250000Hz
attr unit Hz
par ColdChainNetwork.sensor[2].LoRaNic.radio.receiver modulation "\"BPSK\""
par ColdChainNetwork.sensor[2].LoRaNic.radio.receiver alohaChannelModel false
scalar ColdChainNetwork.sensor[2].LoRaNic.radio.receiver numCollisions 0
scalar ColdChainNetwork.sensor[2].LoRaNic.radio.receiver rcvBelowSensitivity 0
scalar ColdChainNetwork.sensor[2].LoRaNic.radio.receiver LoRaReceptionCollision:count 0
attr recordingmode count
attr source LoRaReceptionCollision
par ColdChainNetwork.sensor[2].LoRaNic.radio.energyConsumer typename "\"flora.LoRaEnergyModules.LoRaEnergyConsumer\""
par ColdChainNetwork.sensor[2].LoRaNic.radio.energyConsumer energySourceModule "\"ColdChainNetwork.sensor[index].energyStorage\""
par ColdChainNetwork.sensor[2].LoRaNic.radio.energyConsumer offPowerConsumption 0W
attr unit W
par ColdChainNetwork.sensor[2].LoRaNic.radio.energyConsumer sleepPowerConsumption 0.001W
attr unit W
par ColdChainNetwork.sensor[2].LoRaNic.radio.energyConsumer switchingPowerConsumption 0.001W
attr unit W
par ColdChainNetwork.sensor[2].LoRaNic.radio.energyConsumer receiverIdlePowerConsumption 0.002W
attr unit W
par ColdChainNetwork.sensor[2].LoRaNic.radio.energyConsumer receiverBusyPowerConsumption 0.005W
attr unit W
par ColdChainNetwork.sensor[2].LoRaNic.radio.energyConsumer receiverReceivingPowerConsumption 0.01W
attr unit W
par ColdChainNetwork.sensor[2].LoRaNic.radio.energyConsumer receiverReceivingPreamblePowerConsumption 0.01W
attr unit W
par ColdChainNetwork.sensor[2].LoRaNic.radio.energyConsumer receiverReceivingHeaderPowerConsumption 0.01W
attr unit W
par ColdChainNetwork.sensor[2].LoRaNic.radio.energyConsumer receiverReceivingDataPowerConsumption 0.01W
attr unit W
par ColdChainNetwork.sensor[2].LoRaNic.radio.energyConsumer transmitterIdlePowerConsumption 0.002W
attr unit W
par ColdChainNetwork.sensor[2].LoRaNic.radio.energyConsumer transmitterTransmittingPowerConsumption 0.1W
attr unit W
par ColdChainNetwork.sensor[2].LoRaNic.radio.energyConsumer transmitterTransmittingPreamblePowerConsumption 0.1W
attr unit W
par ColdChainNetwork.sensor[2].LoRaNic.radio.energyConsumer transmitterTransmittingHeaderPowerConsumption 0.1W
attr unit W
par ColdChainNetwork.sensor[2].LoRaNic.radio.energyConsumer transmitterTransmittingDataPowerConsumption 0.1W
attr unit W
par ColdChainNetwork.sensor[2].LoRaNic.radio.energyConsumer configFile "<energyConsumption>...</energyConsumption> at /home/a/Downloads/omnetpp-6.0-linux-aarch64/omnetpp-6.0/ColdChain/ini//energyConfig.xml:3"
scalar ColdChainNetwork.sensor[2].LoRaNic.radio.energyConsumer totalEnergyConsumed 16.412874584283
par ColdChainNetwork.sensor[2].LoRaNic.radio.IdealEpEnergyStorage typename "\"inet.power.storage.IdealEpEnergyStorage\""
scalar ColdChainNetwork.sensor[2].LoRaNic.radio.IdealEpEnergyStorage residualEnergyCapacity:last nan
attr interpolationmode linear
attr recordingmode last
attr source residualEnergyCapacityChanged
attr title "Residual energy capacity, last"
par ColdChainNetwork.sensor[2].LoRaNic.radio typename "\"flora.LoRa.LoRaRadio\""
par ColdChainNetwork.sensor[2].LoRaNic.radio radioMediumModule "\"radioMedium\""
par ColdChainNetwork.sensor[2].LoRaNic.radio energySourceModule "\"ColdChainNetwork.sensor[index].energyStorage\""
par ColdChainNetwork.sensor[2].LoRaNic.radio initialRadioMode "\"off\""
attr enum off,sleep,receiver,transmitter,transceiver
par ColdChainNetwork.sensor[2].LoRaNic.radio switchingTimes "\"ms 0 0 0 0 0 0 0 0 0 0 0 0 0 0 0 0 0 0 0 0 0 0 0 0 0\""
par ColdChainNetwork.sensor[2].LoRaNic.radio sendRawBytes false
par ColdChainNetwork.sensor[2].LoRaNic.radio separateTransmissionParts false
par ColdChainNetwork.sensor[2].LoRaNic.radio separateReceptionParts false
par ColdChainNetwork.sensor[2].LoRaNic.radio displayCommunicationRange false
par ColdChainNetwork.sensor[2].LoRaNic.radio displayInterferenceRange false
par ColdChainNetwork.sensor[2].LoRaNic.radio centerFrequency 8.68e+08Hz
attr unit Hz
par ColdChainNetwork.sensor[2].LoRaNic.radio bandwidth 250000Hz
attr unit Hz
par ColdChainNetwork.sensor[2].LoRaNic.radio iAmGateway false
scalar ColdChainNetwork.sensor[2].LoRaNic.radio radioMode:count 1515
attr interpolationmode sample-hold
attr recordingmode count
attr source radioModeChanged
attr title "Radio mode, count"
scalar ColdChainNetwork.sensor[2].LoRaNic.radio receptionState:count 1152
attr interpolationmode sample-hold
attr recordingmode count
attr source receptionStateChanged
attr title "Radio reception state, count"
scalar ColdChainNetwork.sensor[2].LoRaNic.radio transmissionState:count 934
attr interpolationmode sample-hold
attr recordingmode count
attr source transmissionStateChanged
attr title "Radio transmission state, count"
statistic ColdChainNetwork.sensor[2].LoRaNic.radio minSnir:histogram
field count 52
field mean 49154901759598
field stddev 6950216420965.5
field min 0.99999999999998
field max 50118723362727
field sum 2.5560548914991e+15
field sqrsum 1.2810620800699e+29
attr recordingmode histogram
attr source minimumSnir(packetSentToUpper)
attr title "Min SNIR"
bin	-inf	0
bin	0	1
bin	1000000000000	0
bin	2000000000000	0
bin	3000000000000	0
bin	4000000000000	0
bin	5000000000000	0
bin	6000000000000	0
bin	7000000000000	0
bin	8000000000000	0
bin	9000000000000	0
bin	10000000000000	0
bin	11000000000000	0
bin	12000000000000	0
bin	13000000000000	0
bin	14000000000000	0
bin	15000000000000	0
bin	16000000000000	0
bin	17000000000000	0
bin	18000000000000	0
bin	19000000000000	0
bin	20000000000000	0
bin	21000000000000	0
bin	22000000000000	0
bin	23000000000000	0
bin	24000000000000	0
bin	25000000000000	0
bin	26000000000000	0
bin	27000000000000	0
bin	28000000000000	0
bin	29000000000000	0
bin	30000000000000	0
bin	31000000000000	0
bin	32000000000000	0
bin	33000000000000	0
bin	34000000000000	0
bin	35000000000000	0
bin	36000000000000	0
bin	37000000000000	0
bin	38000000000000	0
bin	39000000000000	0
bin	40000000000000	0
bin	41000000000000	0
bin	42000000000000	0
bin	43000000000000	0
bin	44000000000000	0
bin	45000000000000	0
bin	46000000000000	0
bin	47000000000000	0
bin	48000000000000	0
bin	49000000000000	0
bin	50000000000000	51
bin	51000000000000	0
bin	52000000000000	0
bin	53000000000000	0
bin	54000000000000	0
bin	55000000000000	0
bin	56000000000000	0
bin	57000000000000	0
bin	58000000000000	0
bin	59000000000000	0
bin	60000000000000	0
bin	61000000000000	0
bin	62000000000000	0
bin	63000000000000	0
statistic ColdChainNetwork.sensor[2].LoRaNic.radio packetErrorRate:histogram
field count 52
field mean 0
field stddev 0
field min 0
field max 0
field sum 0
field sqrsum 0
attr recordingmode histogram
attr source packetErrorRate(packetSentToUpper)
attr title "Packet error rate"
bin	-inf	0
bin	-0.5	0
bin	-0.48	0
bin	-0.46	0
bin	-0.44	0
bin	-0.42	0
bin	-0.4	0
bin	-0.38	0
bin	-0.36	0
bin	-0.34	0
bin	-0.32	0
bin	-0.3	0
bin	-0.28	0
bin	-0.26	0
bin	-0.24	0
bin	-0.22	0
bin	-0.2	0
bin	-0.18	0
bin	-0.16	0
bin	-0.14	0
bin	-0.12	0
bin	-0.1	0
bin	-0.08	0
bin	-0.06	0
bin	-0.04	0
bin	-0.02	0
bin	0	52
bin	0.02	0
bin	0.04	0
bin	0.06	0
bin	0.08	0
bin	0.1	0
bin	0.12	0
bin	0.14	0
bin	0.16	0
bin	0.18	0
bin	0.2	0
bin	0.22	0
bin	0.24	0
bin	0.26	0
bin	0.28	0
bin	0.3	0
bin	0.32	0
bin	0.34	0
bin	0.36	0
bin	0.38	0
bin	0.4	0
bin	0.42	0
bin	0.44	0
bin	0.46	0
bin	0.48	0
bin	0.5	0
statistic ColdChainNetwork.sensor[2].LoRaNic.radio bitErrorRate:histogram
field count 52
field mean 0
field stddev 0
field min 0
field max 0
field sum 0
field sqrsum 0
attr recordingmode histogram
attr source bitErrorRate(packetSentToUpper)
attr title "Bit error rate"
bin	-inf	0
bin	-0.5	0
bin	-0.48	0
bin	-0.46	0
bin	-0.44	0
bin	-0.42	0
bin	-0.4	0
bin	-0.38	0
bin	-0.36	0
bin	-0.34	0
bin	-0.32	0
bin	-0.3	0
bin	-0.28	0
bin	-0.26	0
bin	-0.24	0
bin	-0.22	0
bin	-0.2	0
bin	-0.18	0
bin	-0.16	0
bin	-0.14	0
bin	-0.12	0
bin	-0.1	0
bin	-0.08	0
bin	-0.06	0
bin	-0.04	0
bin	-0.02	0
bin	0	52
bin	0.02	0
bin	0.04	0
bin	0.06	0
bin	0.08	0
bin	0.1	0
bin	0.12	0
bin	0.14	0
bin	0.16	0
bin	0.18	0
bin	0.2	0
bin	0.22	0
bin	0.24	0
bin	0.26	0
bin	0.28	0
bin	0.3	0
bin	0.32	0
bin	0.34	0
bin	0.36	0
bin	0.38	0
bin	0.4	0
bin	0.42	0
bin	0.44	0
bin	0.46	0
bin	0.48	0
bin	0.5	0
statistic ColdChainNetwork.sensor[2].LoRaNic.radio symbolErrorRate:histogram
field count 52
field mean 0
field stddev 0
field min 0
field max 0
field sum 0
field sqrsum 0
attr recordingmode histogram
attr source symbolErrorRate(packetSentToUpper)
attr title "Symbol error rate"
bin	-inf	0
bin	-0.5	0
bin	-0.48	0
bin	-0.46	0
bin	-0.44	0
bin	-0.42	0
bin	-0.4	0
bin	-0.38	0
bin	-0.36	0
bin	-0.34	0
bin	-0.32	0
bin	-0.3	0
bin	-0.28	0
bin	-0.26	0
bin	-0.24	0
bin	-0.22	0
bin	-0.2	0
bin	-0.18	0
bin	-0.16	0
bin	-0.14	0
bin	-0.12	0
bin	-0.1	0
bin	-0.08	0
bin	-0.06	0
bin	-0.04	0
bin	-0.02	0
bin	0	52
bin	0.02	0
bin	0.04	0
bin	0.06	0
bin	0.08	0
bin	0.1	0
bin	0.12	0
bin	0.14	0
bin	0.16	0
bin	0.18	0
bin	0.2	0
bin	0.22	0
bin	0.24	0
bin	0.26	0
bin	0.28	0
bin	0.3	0
bin	0.32	0
bin	0.34	0
bin	0.36	0
bin	0.38	0
bin	0.4	0
bin	0.42	0
bin	0.44	0
bin	0.46	0
bin	0.48	0
bin	0.5	0
par ColdChainNetwork.sensor[2].LoRaNic typename "\"flora.LoRa.LoRaNic\""
par ColdChainNetwork.sensor[2].LoRaNic displayStringTextFormat "\"%a (%i)\\n%m\""
par ColdChainNetwork.sensor[2].LoRaNic recordPcap false
par ColdChainNetwork.sensor[2].LoRaNic numPcapRecorders 0
par ColdChainNetwork.sensor[2].LoRaNic interfaceTableModule "\"ColdChainNetwork.sensor[2].interfaceTable\""
par ColdChainNetwork.sensor[2].LoRaNic energySourceModule "\"ColdChainNetwork.sensor[index].energyStorage\""
par ColdChainNetwork.sensor[2].LoRaNic protocol "\"\""
scalar ColdChainNetwork.sensor[2].LoRaNic packetDropInterfaceDown:count 0
attr interpolationmode none
attr recordingmode count
attr source packetDropReasonIsInterfaceDown(packetDropped)
attr title "packet drops: interface down, count"
scalar ColdChainNetwork.sensor[2].LoRaNic packetDropInterfaceDown:sum(packetBytes) 0
attr interpolationmode none
attr recordingmode sum(packetBytes)
attr source packetDropReasonIsInterfaceDown(packetDropped)
attr title "packet drops: interface down, sum(packetBytes)"
scalar ColdChainNetwork.sensor[2].LoRaNic packetDropNoCarrier:count 0
attr interpolationmode none
attr recordingmode count
attr source packetDropReasonIsNoCarrier(packetDropped)
attr title "packet drops: no carrier, count"
scalar ColdChainNetwork.sensor[2].LoRaNic packetDropNoCarrier:sum(packetBytes) 0
attr interpolationmode none
attr recordingmode sum(packetBytes)
attr source packetDropReasonIsNoCarrier(packetDropped)
attr title "packet drops: no carrier, sum(packetBytes)"
par ColdChainNetwork.sensor[2].app[0] typename "\"ColdChainApp\""
par ColdChainNetwork.sensor[2].app[0] numberOfPacketsToSend 1
par ColdChainNetwork.sensor[2].app[0] timeToFirstPacket 10s
attr unit s
par ColdChainNetwork.sensor[2].app[0] timeToNextPacket 20s
attr unit s
par ColdChainNetwork.sensor[2].app[0] initialLoRaTP 14dBm
attr unit dBm
par ColdChainNetwork.sensor[2].app[0] initialLoRaCF 8.68e+08Hz
attr unit Hz
par ColdChainNetwork.sensor[2].app[0] initialLoRaSF 12
par ColdChainNetwork.sensor[2].app[0] initialLoRaBW 125000Hz
attr unit Hz
par ColdChainNetwork.sensor[2].app[0] initialLoRaCR 4
par ColdChainNetwork.sensor[2].app[0] initialUseHeader true
par ColdChainNetwork.sensor[2].app[0] evaluateADRinNode false
par ColdChainNetwork.sensor[2].app[0] dataSize 10B
attr unit B
par ColdChainNetwork.sensor[2].app[0] tempMean 0
par ColdChainNetwork.sensor[2].app[0] tempStdDev 3
par ColdChainNetwork.sensor[2].app[0] thresholdMax 8
par ColdChainNetwork.sensor[2].app[0] sendAlerts true
par ColdChainNetwork.sensor[2].app[0] initialOffset 15.3828s
attr unit s
par ColdChainNetwork.sensor[2].app[0] destPort 4000
scalar ColdChainNetwork.sensor[2].app[0] packetDelivery:count 0
attr interpolationmode none
attr recordingmode count
attr source deliverySignal
attr title "Packet Delivery Count, count"
scalar ColdChainNetwork.sensor[2].app[0] LoRa_AppPacketSent:count 0
attr recordingmode count
attr source LoRa_AppPacketSent
scalar ColdChainNetwork.sensor[2].app[0] temperature:mean 0.0027236387553635
attr interpolationmode sample-hold
attr recordingmode mean
attr source temperatureSignal
attr title "Measured Temperature, mean"
scalar ColdChainNetwork.sensor[2].app[0] temperature:max 7.148094043192
attr interpolationmode sample-hold
attr recordingmode max
attr source temperatureSignal
attr title "Measured Temperature, max"
scalar ColdChainNetwork.sensor[2].app[0] temperature:min -7.4248188191932
attr interpolationmode sample-hold
attr recordingmode min
attr source temperatureSignal
attr title "Measured Temperature, min"
scalar ColdChainNetwork.sensor[2].app[0] temperature:last -0.84283479895411
attr interpolationmode sample-hold
attr recordingmode last
attr source temperatureSignal
attr title "Measured Temperature, last"
scalar ColdChainNetwork.sensor[2].app[0] explicitAlarms:count 234
attr interpolationmode none
attr recordingmode count
attr source alarmSignal
attr title "Total Alarms Triggered, count"
par ColdChainNetwork.sensor[2].energyStorage typename "\"inet.power.storage.IdealEpEnergyStorage\""
scalar ColdChainNetwork.sensor[2].energyStorage residualEnergyCapacity:last nan
attr interpolationmode linear
attr recordingmode last
attr source residualEnergyCapacityChanged
attr title "Residual energy capacity, last"
par ColdChainNetwork.sensor[2] typename "\"SensorNode\""
par ColdChainNetwork.sensor[2] numApps 1
par ColdChainNetwork.sensor[2] deploymentType "\"\""
par ColdChainNetwork.sensor[2] maxGatewayDistance 320
par ColdChainNetwork.sensor[2] gatewayX 320
par ColdChainNetwork.sensor[2] gatewayY 320
par ColdChainNetwork.sensor[2] humidity 40
par ColdChainNetwork.sensor[2] humThreshold 55
par ColdChainNetwork typename "\"ColdChainNetwork\""
par ColdChainNetwork numSensors 3

